
 OpenBabel07132314063D

 25 26  0  0  0  0  0  0  0  0999 V2000
    1.1030   -0.3610   -0.2950 C   0  0  0  0  0  0  0  0  0  0  0  0
    2.5430   -0.0967   -0.1182 C   0  0  0  0  0  0  0  0  0  0  0  0
    3.2799    1.0311   -0.4041 C   0  0  0  0  0  0  0  0  0  0  0  0
    4.5555    0.7453    0.0250 N   0  0  0  0  0  0  0  0  0  0  0  0
    5.7439    1.5278   -0.0011 C   0  0  0  0  0  0  0  0  0  0  0  0
    5.7797    2.9368    0.0146 C   0  0  0  0  0  0  0  0  0  0  0  0
    4.5960    3.7993    0.2902 C   0  0  0  0  0  0  0  0  0  0  0  0
    3.6845    3.4429    1.0204 O   0  0  0  0  0  0  0  0  0  0  0  0
    4.5736    5.0454   -0.2768 N   0  0  0  0  0  0  0  0  0  0  0  0
    7.0316    3.5868   -0.0569 C   0  0  0  0  0  0  0  0  0  0  0  0
    8.2210    2.8644   -0.1570 C   0  0  0  0  0  0  0  0  0  0  0  0
    8.1866    1.4780   -0.1571 C   0  0  0  0  0  0  0  0  0  0  0  0
    6.9633    0.8148   -0.0679 C   0  0  0  0  0  0  0  0  0  0  0  0
    4.5983   -0.5598    0.4123 N   0  0  0  0  0  0  0  0  0  0  0  0
    3.3724   -1.0583    0.3759 N   0  0  0  0  0  0  0  0  0  0  0  0
    0.5607    0.5490   -0.5690 H   0  0  0  0  0  0  0  0  0  0  0  0
    0.6701   -0.7470    0.6336 H   0  0  0  0  0  0  0  0  0  0  0  0
    0.9458   -1.1053   -1.0817 H   0  0  0  0  0  0  0  0  0  0  0  0
    3.0042    1.9721   -0.8521 H   0  0  0  0  0  0  0  0  0  0  0  0
    5.2926    5.4194   -0.8784 H   0  0  0  0  0  0  0  0  0  0  0  0
    3.7908    5.6440   -0.0426 H   0  0  0  0  0  0  0  0  0  0  0  0
    7.1067    4.6688    0.0222 H   0  0  0  0  0  0  0  0  0  0  0  0
    9.1741    3.3856   -0.2014 H   0  0  0  0  0  0  0  0  0  0  0  0
    9.1104    0.9074   -0.2160 H   0  0  0  0  0  0  0  0  0  0  0  0
    6.9775   -0.2760   -0.0736 H   0  0  0  0  0  0  0  0  0  0  0  0
  1  2  1  0  0  0  0
  1 16  1  0  0  0  0
  1 17  1  0  0  0  0
  1 18  1  0  0  0  0
  2  3  2  0  0  0  0
  2 15  1  0  0  0  0
  3  4  1  0  0  0  0
  3 19  1  0  0  0  0
  4  5  1  0  0  0  0
  4 14  1  0  0  0  0
  5  6  2  0  0  0  0
  5 13  1  0  0  0  0
  6  7  1  0  0  0  0
  6 10  1  0  0  0  0
  7  8  2  0  0  0  0
  7  9  1  0  0  0  0
  9 20  1  0  0  0  0
  9 21  1  0  0  0  0
 10 11  2  0  0  0  0
 10 22  1  0  0  0  0
 11 12  1  0  0  0  0
 11 23  1  0  0  0  0
 12 13  2  0  0  0  0
 12 24  1  0  0  0  0
 13 25  1  0  0  0  0
 14 15  2  0  0  0  0
M  END
$$$$
