
 OpenBabel07132314063D

 28 29  0  0  0  0  0  0  0  0999 V2000
    1.1178   -0.2638   -0.3156 C   0  0  0  0  0  0  0  0  0  0  0  0
    2.5577   -0.0756   -0.0609 C   0  0  0  0  0  0  0  0  0  0  0  0
    3.3660    1.0030   -0.3334 C   0  0  0  0  0  0  0  0  0  0  0  0
    4.5878    0.6309    0.1454 N   0  0  0  0  0  0  0  0  0  0  0  0
    5.8350    1.3748    0.1216 C   0  0  0  0  0  0  0  0  0  0  0  0
    5.5487    2.7708    0.1545 O   0  0  0  0  0  0  0  0  0  0  0  0
    6.7361    3.5514    0.1464 C   0  0  0  0  0  0  0  0  0  0  0  0
    6.3270    4.9982    0.1903 C   0  0  0  0  0  0  0  0  0  0  0  0
    6.1849    5.6621    1.4170 C   0  0  0  0  0  0  0  0  0  0  0  0
    5.7670    6.9934    1.4579 C   0  0  0  0  0  0  0  0  0  0  0  0
    5.4789    7.6714    0.2751 C   0  0  0  0  0  0  0  0  0  0  0  0
    5.6050    7.0187   -0.9496 C   0  0  0  0  0  0  0  0  0  0  0  0
    6.0231    5.6873   -0.9928 C   0  0  0  0  0  0  0  0  0  0  0  0
    4.5543   -0.6182    0.6463 N   0  0  0  0  0  0  0  0  0  0  0  0
    3.3071   -1.0573    0.5356 N   0  0  0  0  0  0  0  0  0  0  0  0
    0.6877    0.6075   -0.8197 H   0  0  0  0  0  0  0  0  0  0  0  0
    0.5804   -0.4113    0.6261 H   0  0  0  0  0  0  0  0  0  0  0  0
    0.9528   -1.1400   -0.9496 H   0  0  0  0  0  0  0  0  0  0  0  0
    3.1867    1.9668   -0.7870 H   0  0  0  0  0  0  0  0  0  0  0  0
    6.3546    1.1049   -0.8034 H   0  0  0  0  0  0  0  0  0  0  0  0
    6.4205    1.0836    0.9999 H   0  0  0  0  0  0  0  0  0  0  0  0
    7.3169    3.3492   -0.7615 H   0  0  0  0  0  0  0  0  0  0  0  0
    7.3611    3.3045    1.0131 H   0  0  0  0  0  0  0  0  0  0  0  0
    6.3861    5.1407    2.3503 H   0  0  0  0  0  0  0  0  0  0  0  0
    5.6562    7.4985    2.4140 H   0  0  0  0  0  0  0  0  0  0  0  0
    5.1461    8.7055    0.3084 H   0  0  0  0  0  0  0  0  0  0  0  0
    5.3681    7.5435   -1.8714 H   0  0  0  0  0  0  0  0  0  0  0  0
    6.0982    5.1855   -1.9543 H   0  0  0  0  0  0  0  0  0  0  0  0
  1  2  1  0  0  0  0
  1 16  1  0  0  0  0
  1 17  1  0  0  0  0
  1 18  1  0  0  0  0
  2  3  2  0  0  0  0
  2 15  1  0  0  0  0
  3  4  1  0  0  0  0
  3 19  1  0  0  0  0
  4  5  1  0  0  0  0
  4 14  1  0  0  0  0
  5  6  1  0  0  0  0
  5 20  1  0  0  0  0
  5 21  1  0  0  0  0
  6  7  1  0  0  0  0
  7  8  1  0  0  0  0
  7 22  1  0  0  0  0
  7 23  1  0  0  0  0
  8  9  2  0  0  0  0
  8 13  1  0  0  0  0
  9 10  1  0  0  0  0
  9 24  1  0  0  0  0
 10 11  2  0  0  0  0
 10 25  1  0  0  0  0
 11 12  1  0  0  0  0
 11 26  1  0  0  0  0
 12 13  2  0  0  0  0
 12 27  1  0  0  0  0
 13 28  1  0  0  0  0
 14 15  2  0  0  0  0
M  END
$$$$
