
 OpenBabel07132314063D

 27 28  0  0  0  0  0  0  0  0999 V2000
    7.7481   -0.1418   -4.2739 C   0  0  0  0  0  0  0  0  0  0  0  0
    7.4362    0.2663   -2.8918 C   0  0  0  0  0  0  0  0  0  0  0  0
    6.2162    0.4144   -2.2707 C   0  0  0  0  0  0  0  0  0  0  0  0
    6.5355    0.9273   -1.0484 N   0  0  0  0  0  0  0  0  0  0  0  0
    5.6344    1.4007   -0.0180 C   0  0  0  0  0  0  0  0  0  0  0  0
    5.3562    2.8794   -0.1675 C   0  0  0  0  0  0  0  0  0  0  0  0
    4.2551    3.3293   -0.9102 C   0  0  0  0  0  0  0  0  0  0  0  0
    3.9810    4.6958   -1.0129 C   0  0  0  0  0  0  0  0  0  0  0  0
    4.8090    5.6314   -0.3879 C   0  0  0  0  0  0  0  0  0  0  0  0
    4.4299    7.0669   -0.4681 C   0  0  0  0  0  0  0  0  0  0  0  0
    3.2697    7.4357   -0.5435 O   0  0  0  0  0  0  0  0  0  0  0  0
    5.4765    7.9142   -0.4851 O   0  0  0  0  0  0  0  0  0  0  0  0
    5.9257    5.1942    0.3400 C   0  0  0  0  0  0  0  0  0  0  0  0
    6.2006    3.8264    0.4357 C   0  0  0  0  0  0  0  0  0  0  0  0
    7.8679    0.9859   -0.8744 N   0  0  0  0  0  0  0  0  0  0  0  0
    8.4319    0.5975   -2.0101 N   0  0  0  0  0  0  0  0  0  0  0  0
    6.8707   -0.0387   -4.9205 H   0  0  0  0  0  0  0  0  0  0  0  0
    8.0811   -1.1828   -4.3050 H   0  0  0  0  0  0  0  0  0  0  0  0
    8.5422    0.4895   -4.6853 H   0  0  0  0  0  0  0  0  0  0  0  0
    5.1998    0.2563   -2.5983 H   0  0  0  0  0  0  0  0  0  0  0  0
    6.0806    1.1799    0.9587 H   0  0  0  0  0  0  0  0  0  0  0  0
    4.7063    0.8211   -0.0870 H   0  0  0  0  0  0  0  0  0  0  0  0
    3.5899    2.6224   -1.4023 H   0  0  0  0  0  0  0  0  0  0  0  0
    3.1083    5.0300   -1.5717 H   0  0  0  0  0  0  0  0  0  0  0  0
    6.3483    7.4950   -0.6015 H   0  0  0  0  0  0  0  0  0  0  0  0
    6.5675    5.8938    0.8677 H   0  0  0  0  0  0  0  0  0  0  0  0
    7.0735    3.4983    1.0002 H   0  0  0  0  0  0  0  0  0  0  0  0
  1  2  1  0  0  0  0
  1 17  1  0  0  0  0
  1 18  1  0  0  0  0
  1 19  1  0  0  0  0
  2  3  2  0  0  0  0
  2 16  1  0  0  0  0
  3  4  1  0  0  0  0
  3 20  1  0  0  0  0
  4  5  1  0  0  0  0
  4 15  1  0  0  0  0
  5  6  1  0  0  0  0
  5 21  1  0  0  0  0
  5 22  1  0  0  0  0
  6  7  2  0  0  0  0
  6 14  1  0  0  0  0
  7  8  1  0  0  0  0
  7 23  1  0  0  0  0
  8  9  2  0  0  0  0
  8 24  1  0  0  0  0
  9 10  1  0  0  0  0
  9 13  1  0  0  0  0
 10 11  2  0  0  0  0
 10 12  1  0  0  0  0
 12 25  1  0  0  0  0
 13 14  2  0  0  0  0
 13 26  1  0  0  0  0
 14 27  1  0  0  0  0
 15 16  2  0  0  0  0
M  END
$$$$
