
 OpenBabel07132314063D

 21 22  0  0  0  0  0  0  0  0999 V2000
    1.0797   -0.0497    0.0368 C   0  0  0  0  0  0  0  0  0  0  0  0
    2.5472    0.0998    0.0243 C   0  0  0  0  0  0  0  0  0  0  0  0
    3.3169    1.2398    0.0671 C   0  0  0  0  0  0  0  0  0  0  0  0
    4.6167    0.7952   -0.0131 N   0  0  0  0  0  0  0  0  0  0  0  0
    5.8136    1.5563   -0.0703 C   0  0  0  0  0  0  0  0  0  0  0  0
    5.7791    2.9575   -0.0308 C   0  0  0  0  0  0  0  0  0  0  0  0
    6.9656    3.6909   -0.1296 C   0  0  0  0  0  0  0  0  0  0  0  0
    8.1843    3.0287   -0.2644 C   0  0  0  0  0  0  0  0  0  0  0  0
    9.7805    4.0279   -0.4251 Br  0  0  0  0  0  0  0  0  0  0  0  0
    8.2320    1.6366   -0.2894 C   0  0  0  0  0  0  0  0  0  0  0  0
    7.0490    0.8985   -0.1905 C   0  0  0  0  0  0  0  0  0  0  0  0
    4.6218   -0.5593   -0.0654 N   0  0  0  0  0  0  0  0  0  0  0  0
    3.3671   -0.9884   -0.0497 N   0  0  0  0  0  0  0  0  0  0  0  0
    0.5827    0.9237    0.0982 H   0  0  0  0  0  0  0  0  0  0  0  0
    0.7636   -0.6498    0.8954 H   0  0  0  0  0  0  0  0  0  0  0  0
    0.7404   -0.5469   -0.8773 H   0  0  0  0  0  0  0  0  0  0  0  0
    3.0476    2.2812    0.1268 H   0  0  0  0  0  0  0  0  0  0  0  0
    4.8502    3.5111    0.0688 H   0  0  0  0  0  0  0  0  0  0  0  0
    6.9273    4.7776   -0.1070 H   0  0  0  0  0  0  0  0  0  0  0  0
    9.1806    1.1155   -0.3929 H   0  0  0  0  0  0  0  0  0  0  0  0
    7.1094   -0.1887   -0.2197 H   0  0  0  0  0  0  0  0  0  0  0  0
  1  2  1  0  0  0  0
  1 14  1  0  0  0  0
  1 15  1  0  0  0  0
  1 16  1  0  0  0  0
  2  3  2  0  0  0  0
  2 13  1  0  0  0  0
  3  4  1  0  0  0  0
  3 17  1  0  0  0  0
  4  5  1  0  0  0  0
  4 12  1  0  0  0  0
  5  6  2  0  0  0  0
  5 11  1  0  0  0  0
  6  7  1  0  0  0  0
  6 18  1  0  0  0  0
  7  8  2  0  0  0  0
  7 19  1  0  0  0  0
  8  9  1  0  0  0  0
  8 10  1  0  0  0  0
 10 11  2  0  0  0  0
 10 20  1  0  0  0  0
 11 21  1  0  0  0  0
 12 13  2  0  0  0  0
M  END
$$$$
