
 OpenBabel07132314063D

 32 33  0  0  1  0  0  0  0  0999 V2000
    1.7716   -1.7186   -0.7414 C   0  0  0  0  0  0  0  0  0  0  0  0
    2.7666   -0.7354   -0.2767 C   0  0  0  0  0  0  0  0  0  0  0  0
    3.9427   -0.3386   -0.8688 C   0  0  0  0  0  0  0  0  0  0  0  0
    4.4461    0.6002   -0.0193 N   0  0  0  0  0  0  0  0  0  0  0  0
    5.6884    1.3527   -0.1023 C   0  0  3  0  0  0  0  0  0  0  0  0
    6.5913    0.9570   -1.2790 C   0  0  0  0  0  0  0  0  0  0  0  0
    5.4672    2.8744   -0.0396 C   0  0  0  0  0  0  0  0  0  0  0  0
    4.6472    3.4275   -1.1911 C   0  0  0  0  0  0  0  0  0  0  0  0
    4.1868    2.7079   -2.0755 O   0  0  0  0  0  0  0  0  0  0  0  0
    4.4257    4.9023   -1.2743 C   0  0  0  0  0  0  0  0  0  0  0  0
    4.9846    5.7996   -0.3562 C   0  0  0  0  0  0  0  0  0  0  0  0
    4.7787    7.1733   -0.5060 C   0  0  0  0  0  0  0  0  0  0  0  0
    4.0115    7.6568   -1.5657 C   0  0  0  0  0  0  0  0  0  0  0  0
    3.4430    6.7699   -2.4754 C   0  0  0  0  0  0  0  0  0  0  0  0
    3.6486    5.3972   -2.3316 C   0  0  0  0  0  0  0  0  0  0  0  0
    3.6525    0.7445    1.0617 N   0  0  0  0  0  0  0  0  0  0  0  0
    2.6087   -0.0594    0.9033 N   0  0  0  0  0  0  0  0  0  0  0  0
    2.0632   -2.1481   -1.7054 H   0  0  0  0  0  0  0  0  0  0  0  0
    0.7922   -1.2463   -0.8626 H   0  0  0  0  0  0  0  0  0  0  0  0
    1.6778   -2.5365   -0.0206 H   0  0  0  0  0  0  0  0  0  0  0  0
    4.4213   -0.6238   -1.7924 H   0  0  0  0  0  0  0  0  0  0  0  0
    6.2355    1.0717    0.8093 H   0  0  0  0  0  0  0  0  0  0  0  0
    6.1152    1.1348   -2.2483 H   0  0  0  0  0  0  0  0  0  0  0  0
    6.8476   -0.1071   -1.2320 H   0  0  0  0  0  0  0  0  0  0  0  0
    7.5277    1.5244   -1.2578 H   0  0  0  0  0  0  0  0  0  0  0  0
    6.4475    3.3660   -0.0454 H   0  0  0  0  0  0  0  0  0  0  0  0
    4.9571    3.1348    0.8958 H   0  0  0  0  0  0  0  0  0  0  0  0
    5.5866    5.4621    0.4818 H   0  0  0  0  0  0  0  0  0  0  0  0
    5.2188    7.8697    0.2044 H   0  0  0  0  0  0  0  0  0  0  0  0
    3.8553    8.7261   -1.6799 H   0  0  0  0  0  0  0  0  0  0  0  0
    2.8403    7.1432   -3.3006 H   0  0  0  0  0  0  0  0  0  0  0  0
    3.2006    4.7143   -3.0518 H   0  0  0  0  0  0  0  0  0  0  0  0
  1  2  1  0  0  0  0
  1 18  1  0  0  0  0
  1 19  1  0  0  0  0
  1 20  1  0  0  0  0
  2  3  2  0  0  0  0
  2 17  1  0  0  0  0
  3  4  1  0  0  0  0
  3 21  1  0  0  0  0
  4  5  1  0  0  0  0
  4 16  1  0  0  0  0
  5  6  1  0  0  0  0
  5  7  1  0  0  0  0
  5 22  1  0  0  0  0
  6 23  1  0  0  0  0
  6 24  1  0  0  0  0
  6 25  1  0  0  0  0
  7  8  1  0  0  0  0
  7 26  1  0  0  0  0
  7 27  1  0  0  0  0
  8  9  2  0  0  0  0
  8 10  1  0  0  0  0
 10 11  2  0  0  0  0
 10 15  1  0  0  0  0
 11 12  1  0  0  0  0
 11 28  1  0  0  0  0
 12 13  2  0  0  0  0
 12 29  1  0  0  0  0
 13 14  1  0  0  0  0
 13 30  1  0  0  0  0
 14 15  2  0  0  0  0
 14 31  1  0  0  0  0
 15 32  1  0  0  0  0
 16 17  2  0  0  0  0
M  END
$$$$
