
 OpenBabel07132314063D

 28 29  0  0  0  0  0  0  0  0999 V2000
    9.2198    0.7483   -3.3002 C   0  0  0  0  0  0  0  0  0  0  0  0
    8.1531    0.6568   -2.2860 C   0  0  0  0  0  0  0  0  0  0  0  0
    7.2591    1.6108   -1.8548 C   0  0  0  0  0  0  0  0  0  0  0  0
    6.5759    0.9970   -0.8463 N   0  0  0  0  0  0  0  0  0  0  0  0
    5.5900    1.5177    0.0874 C   0  0  0  0  0  0  0  0  0  0  0  0
    5.3345    3.0012   -0.0250 C   0  0  0  0  0  0  0  0  0  0  0  0
    4.2551    3.4824   -0.7771 C   0  0  0  0  0  0  0  0  0  0  0  0
    4.0242    4.8574   -0.8746 C   0  0  0  0  0  0  0  0  0  0  0  0
    4.8507    5.7669   -0.2135 C   0  0  0  0  0  0  0  0  0  0  0  0
    4.5385    7.0853   -0.3995 O   0  0  0  0  0  0  0  0  0  0  0  0
    4.8366    7.9447    0.6968 C   0  0  0  0  0  0  0  0  0  0  0  0
    5.9400    5.2969    0.5158 C   0  0  0  0  0  0  0  0  0  0  0  0
    6.1811    3.9214    0.6113 C   0  0  0  0  0  0  0  0  0  0  0  0
    6.9675   -0.2872   -0.7172 N   0  0  0  0  0  0  0  0  0  0  0  0
    7.9410   -0.5027   -1.5890 N   0  0  0  0  0  0  0  0  0  0  0  0
    9.4878    1.7916   -3.4949 H   0  0  0  0  0  0  0  0  0  0  0  0
    8.8981    0.2922   -4.2410 H   0  0  0  0  0  0  0  0  0  0  0  0
   10.1200    0.2301   -2.9548 H   0  0  0  0  0  0  0  0  0  0  0  0
    7.0928    2.6377   -2.1480 H   0  0  0  0  0  0  0  0  0  0  0  0
    5.9532    1.2840    1.0960 H   0  0  0  0  0  0  0  0  0  0  0  0
    4.6654    0.9504   -0.0700 H   0  0  0  0  0  0  0  0  0  0  0  0
    3.5871    2.7976   -1.2934 H   0  0  0  0  0  0  0  0  0  0  0  0
    3.1846    5.2226   -1.4618 H   0  0  0  0  0  0  0  0  0  0  0  0
    4.4708    8.9442    0.4433 H   0  0  0  0  0  0  0  0  0  0  0  0
    5.9156    8.0295    0.8682 H   0  0  0  0  0  0  0  0  0  0  0  0
    4.3184    7.6159    1.6030 H   0  0  0  0  0  0  0  0  0  0  0  0
    6.6338    5.9764    1.0010 H   0  0  0  0  0  0  0  0  0  0  0  0
    7.0442    3.5768    1.1770 H   0  0  0  0  0  0  0  0  0  0  0  0
  1  2  1  0  0  0  0
  1 16  1  0  0  0  0
  1 17  1  0  0  0  0
  1 18  1  0  0  0  0
  2  3  2  0  0  0  0
  2 15  1  0  0  0  0
  3  4  1  0  0  0  0
  3 19  1  0  0  0  0
  4  5  1  0  0  0  0
  4 14  1  0  0  0  0
  5  6  1  0  0  0  0
  5 20  1  0  0  0  0
  5 21  1  0  0  0  0
  6  7  2  0  0  0  0
  6 13  1  0  0  0  0
  7  8  1  0  0  0  0
  7 22  1  0  0  0  0
  8  9  2  0  0  0  0
  8 23  1  0  0  0  0
  9 10  1  0  0  0  0
  9 12  1  0  0  0  0
 10 11  1  0  0  0  0
 11 24  1  0  0  0  0
 11 25  1  0  0  0  0
 11 26  1  0  0  0  0
 12 13  2  0  0  0  0
 12 27  1  0  0  0  0
 13 28  1  0  0  0  0
 14 15  2  0  0  0  0
M  END
$$$$
