
 OpenBabel07132314063D

 24 26  0  0  0  0  0  0  0  0999 V2000
    0.9525   -0.0562    0.0853 C   0  0  0  0  0  0  0  0  0  0  0  0
    2.4207    0.0778    0.0486 C   0  0  0  0  0  0  0  0  0  0  0  0
    3.1933    1.2133    0.1069 C   0  0  0  0  0  0  0  0  0  0  0  0
    4.4930    0.7677    0.0331 N   0  0  0  0  0  0  0  0  0  0  0  0
    5.6893    1.5316    0.0481 C   0  0  0  0  0  0  0  0  0  0  0  0
    6.9323    0.8842   -0.0449 C   0  0  0  0  0  0  0  0  0  0  0  0
    8.1331    1.6086   -0.0379 C   0  0  0  0  0  0  0  0  0  0  0  0
    8.0387    2.9999    0.0657 C   0  0  0  0  0  0  0  0  0  0  0  0
    8.9927    3.9838    0.0977 N   0  0  0  0  0  0  0  0  0  0  0  0
    9.9982    3.8693    0.0495 H   0  0  0  0  0  0  0  0  0  0  0  0
    8.4963    5.2290    0.2096 N   0  0  0  0  0  0  0  0  0  0  0  0
    7.1764    5.0336    0.2476 C   0  0  0  0  0  0  0  0  0  0  0  0
    6.8251    3.6687    0.1618 C   0  0  0  0  0  0  0  0  0  0  0  0
    5.6269    2.9337    0.1542 C   0  0  0  0  0  0  0  0  0  0  0  0
    4.4948   -0.5848   -0.0651 N   0  0  0  0  0  0  0  0  0  0  0  0
    3.2374   -1.0107   -0.0558 N   0  0  0  0  0  0  0  0  0  0  0  0
    0.4701    0.9253    0.1438 H   0  0  0  0  0  0  0  0  0  0  0  0
    0.6429   -0.6384    0.9581 H   0  0  0  0  0  0  0  0  0  0  0  0
    0.5903   -0.5581   -0.8166 H   0  0  0  0  0  0  0  0  0  0  0  0
    2.9249    2.2531    0.1901 H   0  0  0  0  0  0  0  0  0  0  0  0
    6.9905   -0.2016   -0.1263 H   0  0  0  0  0  0  0  0  0  0  0  0
    9.0910    1.1029   -0.1111 H   0  0  0  0  0  0  0  0  0  0  0  0
    6.5210    5.8901    0.3359 H   0  0  0  0  0  0  0  0  0  0  0  0
    4.6923    3.4757    0.2304 H   0  0  0  0  0  0  0  0  0  0  0  0
  1  2  1  0  0  0  0
  1 17  1  0  0  0  0
  1 18  1  0  0  0  0
  1 19  1  0  0  0  0
  2  3  2  0  0  0  0
  2 16  1  0  0  0  0
  3  4  1  0  0  0  0
  3 20  1  0  0  0  0
  4  5  1  0  0  0  0
  4 15  1  0  0  0  0
  5  6  2  0  0  0  0
  5 14  1  0  0  0  0
  6  7  1  0  0  0  0
  6 21  1  0  0  0  0
  7  8  2  0  0  0  0
  7 22  1  0  0  0  0
  8  9  1  0  0  0  0
  8 13  1  0  0  0  0
  9 10  1  0  0  0  0
  9 11  1  0  0  0  0
 11 12  2  0  0  0  0
 12 13  1  0  0  0  0
 12 23  1  0  0  0  0
 13 14  2  0  0  0  0
 14 24  1  0  0  0  0
 15 16  2  0  0  0  0
M  END
$$$$
