
 OpenBabel07132314063D

 32 33  0  0  0  0  0  0  0  0999 V2000
    3.3375    0.5616    4.4845 C   0  0  0  0  0  0  0  0  0  0  0  0
    3.8676    0.5184    3.1088 C   0  0  0  0  0  0  0  0  0  0  0  0
    4.9313    1.1944    2.5571 C   0  0  0  0  0  0  0  0  0  0  0  0
    4.8784    0.8629    1.2342 N   0  0  0  0  0  0  0  0  0  0  0  0
    5.6713    1.4000    0.1440 C   0  0  0  0  0  0  0  0  0  0  0  0
    5.3921    2.8737   -0.0480 C   0  0  0  0  0  0  0  0  0  0  0  0
    4.2690    3.2911   -0.7827 C   0  0  0  0  0  0  0  0  0  0  0  0
    3.9545    4.6525   -0.9023 C   0  0  0  0  0  0  0  0  0  0  0  0
    2.8662    5.1385   -1.5837 O   0  0  0  0  0  0  0  0  0  0  0  0
    1.9793    4.1984   -2.1731 C   0  0  0  0  0  0  0  0  0  0  0  0
    4.7796    5.6135   -0.2840 C   0  0  0  0  0  0  0  0  0  0  0  0
    4.4097    6.9259   -0.4512 O   0  0  0  0  0  0  0  0  0  0  0  0
    5.1932    7.9198    0.1931 C   0  0  0  0  0  0  0  0  0  0  0  0
    5.8961    5.1960    0.4458 C   0  0  0  0  0  0  0  0  0  0  0  0
    6.2011    3.8373    0.5616 C   0  0  0  0  0  0  0  0  0  0  0  0
    3.9128   -0.0429    0.9976 N   0  0  0  0  0  0  0  0  0  0  0  0
    3.2774   -0.2538    2.1434 N   0  0  0  0  0  0  0  0  0  0  0  0
    3.6393    1.4840    4.9916 H   0  0  0  0  0  0  0  0  0  0  0  0
    3.7057   -0.2886    5.0652 H   0  0  0  0  0  0  0  0  0  0  0  0
    2.2433    0.5282    4.4748 H   0  0  0  0  0  0  0  0  0  0  0  0
    5.6432    1.8981    2.9614 H   0  0  0  0  0  0  0  0  0  0  0  0
    5.4388    0.8401   -0.7691 H   0  0  0  0  0  0  0  0  0  0  0  0
    6.7251    1.2191    0.3831 H   0  0  0  0  0  0  0  0  0  0  0  0
    3.6415    2.5313   -1.2395 H   0  0  0  0  0  0  0  0  0  0  0  0
    1.1234    4.7511   -2.5729 H   0  0  0  0  0  0  0  0  0  0  0  0
    1.5933    3.4882   -1.4343 H   0  0  0  0  0  0  0  0  0  0  0  0
    2.4631    3.6801   -3.0074 H   0  0  0  0  0  0  0  0  0  0  0  0
    4.7863    8.8975   -0.0823 H   0  0  0  0  0  0  0  0  0  0  0  0
    6.2339    7.8901   -0.1457 H   0  0  0  0  0  0  0  0  0  0  0  0
    5.1280    7.8251    1.2819 H   0  0  0  0  0  0  0  0  0  0  0  0
    6.5475    5.9043    0.9460 H   0  0  0  0  0  0  0  0  0  0  0  0
    7.0689    3.5421    1.1477 H   0  0  0  0  0  0  0  0  0  0  0  0
  1  2  1  0  0  0  0
  1 18  1  0  0  0  0
  1 19  1  0  0  0  0
  1 20  1  0  0  0  0
  2  3  2  0  0  0  0
  2 17  1  0  0  0  0
  3  4  1  0  0  0  0
  3 21  1  0  0  0  0
  4  5  1  0  0  0  0
  4 16  1  0  0  0  0
  5  6  1  0  0  0  0
  5 22  1  0  0  0  0
  5 23  1  0  0  0  0
  6  7  2  0  0  0  0
  6 15  1  0  0  0  0
  7  8  1  0  0  0  0
  7 24  1  0  0  0  0
  8  9  1  0  0  0  0
  8 11  2  0  0  0  0
  9 10  1  0  0  0  0
 10 25  1  0  0  0  0
 10 26  1  0  0  0  0
 10 27  1  0  0  0  0
 11 12  1  0  0  0  0
 11 14  1  0  0  0  0
 12 13  1  0  0  0  0
 13 28  1  0  0  0  0
 13 29  1  0  0  0  0
 13 30  1  0  0  0  0
 14 15  2  0  0  0  0
 14 31  1  0  0  0  0
 15 32  1  0  0  0  0
 16 17  2  0  0  0  0
M  END
$$$$
