
 OpenBabel07132314063D

 33 34  0  0  0  0  0  0  0  0999 V2000
    1.5916   -1.0073   -1.2198 C   0  0  0  0  0  0  0  0  0  0  0  0
    2.7341   -0.3237   -0.5810 C   0  0  0  0  0  0  0  0  0  0  0  0
    3.8113    0.3213   -1.1472 C   0  0  0  0  0  0  0  0  0  0  0  0
    4.5290    0.7631   -0.0757 N   0  0  0  0  0  0  0  0  0  0  0  0
    5.7613    1.5238   -0.0759 C   0  0  0  0  0  0  0  0  0  0  0  0
    5.4895    3.0201   -0.0608 C   0  0  0  0  0  0  0  0  0  0  0  0
    6.6815    3.8552   -0.1305 N   0  0  0  0  0  0  0  0  0  0  0  0
    6.5235    5.2157   -0.0997 C   0  0  0  0  0  0  0  0  0  0  0  0
    5.4211    5.7578   -0.1164 O   0  0  0  0  0  0  0  0  0  0  0  0
    7.6895    5.9173   -0.0769 N   0  0  0  0  0  0  0  0  0  0  0  0
    7.6284    7.3598   -0.0502 C   0  0  0  0  0  0  0  0  0  0  0  0
    8.9657    8.0058   -0.0382 C   0  0  0  0  0  0  0  0  0  0  0  0
    9.3310    9.3385   -0.0356 C   0  0  0  0  0  0  0  0  0  0  0  0
   10.7443    9.3714   -0.0224 C   0  0  0  0  0  0  0  0  0  0  0  0
   11.1549    8.0589   -0.0169 C   0  0  0  0  0  0  0  0  0  0  0  0
   10.0827    7.2180   -0.0248 O   0  0  0  0  0  0  0  0  0  0  0  0
    3.9482    0.4086    1.0815 N   0  0  0  0  0  0  0  0  0  0  0  0
    2.8411   -0.2590    0.7821 N   0  0  0  0  0  0  0  0  0  0  0  0
    1.6634   -0.9660   -2.3115 H   0  0  0  0  0  0  0  0  0  0  0  0
    0.6499   -0.5371   -0.9227 H   0  0  0  0  0  0  0  0  0  0  0  0
    1.5608   -2.0591   -0.9203 H   0  0  0  0  0  0  0  0  0  0  0  0
    4.1049    0.5006   -2.1707 H   0  0  0  0  0  0  0  0  0  0  0  0
    6.3318    1.2332   -0.9662 H   0  0  0  0  0  0  0  0  0  0  0  0
    6.3447    1.2194    0.8023 H   0  0  0  0  0  0  0  0  0  0  0  0
    4.9329    3.2981    0.8441 H   0  0  0  0  0  0  0  0  0  0  0  0
    4.8565    3.2943   -0.9154 H   0  0  0  0  0  0  0  0  0  0  0  0
    7.5885    3.4819    0.1102 H   0  0  0  0  0  0  0  0  0  0  0  0
    8.5945    5.4711   -0.0201 H   0  0  0  0  0  0  0  0  0  0  0  0
    7.0647    7.6606    0.8410 H   0  0  0  0  0  0  0  0  0  0  0  0
    7.0660    7.6919   -0.9308 H   0  0  0  0  0  0  0  0  0  0  0  0
    8.6530   10.1811   -0.0431 H   0  0  0  0  0  0  0  0  0  0  0  0
   11.3825   10.2425   -0.0177 H   0  0  0  0  0  0  0  0  0  0  0  0
   12.1242    7.5814   -0.0075 H   0  0  0  0  0  0  0  0  0  0  0  0
  1  2  1  0  0  0  0
  1 19  1  0  0  0  0
  1 20  1  0  0  0  0
  1 21  1  0  0  0  0
  2  3  2  0  0  0  0
  2 18  1  0  0  0  0
  3  4  1  0  0  0  0
  3 22  1  0  0  0  0
  4  5  1  0  0  0  0
  4 17  1  0  0  0  0
  5  6  1  0  0  0  0
  5 23  1  0  0  0  0
  5 24  1  0  0  0  0
  6  7  1  0  0  0  0
  6 25  1  0  0  0  0
  6 26  1  0  0  0  0
  7  8  1  0  0  0  0
  7 27  1  0  0  0  0
  8  9  2  0  0  0  0
  8 10  1  0  0  0  0
 10 11  1  0  0  0  0
 10 28  1  0  0  0  0
 11 12  1  0  0  0  0
 11 29  1  0  0  0  0
 11 30  1  0  0  0  0
 12 13  2  0  0  0  0
 12 16  1  0  0  0  0
 13 14  1  0  0  0  0
 13 31  1  0  0  0  0
 14 15  2  0  0  0  0
 14 32  1  0  0  0  0
 15 16  1  0  0  0  0
 15 33  1  0  0  0  0
 17 18  2  0  0  0  0
M  END
$$$$
