
 OpenBabel07132314063D

 24 25  0  0  0  0  0  0  0  0999 V2000
    2.0733   -1.7973   -0.7276 C   0  0  0  0  0  0  0  0  0  0  0  0
    2.9996   -0.7688   -0.2136 C   0  0  0  0  0  0  0  0  0  0  0  0
    3.8415    0.0821   -0.8945 C   0  0  0  0  0  0  0  0  0  0  0  0
    4.5201    0.7354    0.0943 N   0  0  0  0  0  0  0  0  0  0  0  0
    5.7205    1.5409   -0.0382 C   0  0  0  0  0  0  0  0  0  0  0  0
    5.4420    3.0147   -0.1975 C   0  0  0  0  0  0  0  0  0  0  0  0
    4.8467    3.7516    0.8379 C   0  0  0  0  0  0  0  0  0  0  0  0
    4.6743    5.1343    0.7191 C   0  0  0  0  0  0  0  0  0  0  0  0
    5.0920    5.7957   -0.4343 C   0  0  0  0  0  0  0  0  0  0  0  0
    5.6735    5.0706   -1.4697 C   0  0  0  0  0  0  0  0  0  0  0  0
    6.2526    5.9648   -3.0321 Br  0  0  0  0  0  0  0  0  0  0  0  0
    5.8509    3.6897   -1.3592 C   0  0  0  0  0  0  0  0  0  0  0  0
    4.0909    0.3509    1.3112 N   0  0  0  0  0  0  0  0  0  0  0  0
    3.1512   -0.5677    1.1329 N   0  0  0  0  0  0  0  0  0  0  0  0
    2.3328   -2.0839   -1.7518 H   0  0  0  0  0  0  0  0  0  0  0  0
    1.0442   -1.4271   -0.7216 H   0  0  0  0  0  0  0  0  0  0  0  0
    2.1207   -2.6980   -0.1071 H   0  0  0  0  0  0  0  0  0  0  0  0
    4.0408    0.2344   -1.9444 H   0  0  0  0  0  0  0  0  0  0  0  0
    6.2715    1.1485   -0.9010 H   0  0  0  0  0  0  0  0  0  0  0  0
    6.3466    1.3710    0.8461 H   0  0  0  0  0  0  0  0  0  0  0  0
    4.5240    3.2570    1.7530 H   0  0  0  0  0  0  0  0  0  0  0  0
    4.2196    5.6948    1.5328 H   0  0  0  0  0  0  0  0  0  0  0  0
    4.9640    6.8724   -0.5122 H   0  0  0  0  0  0  0  0  0  0  0  0
    6.3247    3.1444   -2.1722 H   0  0  0  0  0  0  0  0  0  0  0  0
  1  2  1  0  0  0  0
  1 15  1  0  0  0  0
  1 16  1  0  0  0  0
  1 17  1  0  0  0  0
  2  3  2  0  0  0  0
  2 14  1  0  0  0  0
  3  4  1  0  0  0  0
  3 18  1  0  0  0  0
  4  5  1  0  0  0  0
  4 13  1  0  0  0  0
  5  6  1  0  0  0  0
  5 19  1  0  0  0  0
  5 20  1  0  0  0  0
  6  7  2  0  0  0  0
  6 12  1  0  0  0  0
  7  8  1  0  0  0  0
  7 21  1  0  0  0  0
  8  9  2  0  0  0  0
  8 22  1  0  0  0  0
  9 10  1  0  0  0  0
  9 23  1  0  0  0  0
 10 11  1  0  0  0  0
 10 12  2  0  0  0  0
 12 24  1  0  0  0  0
 13 14  2  0  0  0  0
M  END
$$$$
