
 OpenBabel07132314063D

 43 45  0  0  1  0  0  0  0  0999 V2000
    2.2025   -1.6540    2.0098 C   0  0  0  0  0  0  0  0  0  0  0  0
    3.0688   -0.7583    1.2169 C   0  0  0  0  0  0  0  0  0  0  0  0
    4.0127    0.1540    1.6362 C   0  0  0  0  0  0  0  0  0  0  0  0
    4.5519    0.6305    0.4773 N   0  0  0  0  0  0  0  0  0  0  0  0
    5.7286    1.4710    0.3147 C   0  0  0  0  0  0  0  0  0  0  0  0
    5.4111    2.9626    0.1720 C   0  0  1  0  0  0  0  0  0  0  0  0
    4.6949    3.0768   -0.6524 H   0  0  0  0  0  0  0  0  0  0  0  0
    4.6719    3.3956    1.4312 C   0  0  0  0  0  0  0  0  0  0  0  0
    3.4538    3.4529    1.4988 O   0  0  0  0  0  0  0  0  0  0  0  0
    5.4220    3.6150    2.5313 O   0  0  0  0  0  0  0  0  0  0  0  0
    6.6498    3.8685   -0.1179 C   0  0  0  0  0  0  0  0  0  0  0  0
    7.4643    3.5024   -1.3596 C   0  0  0  0  0  0  0  0  0  0  0  0
    6.9121    3.4940   -2.6490 C   0  0  0  0  0  0  0  0  0  0  0  0
    7.6913    3.1722   -3.7656 C   0  0  0  0  0  0  0  0  0  0  0  0
    9.0325    2.8337   -3.6131 C   0  0  0  0  0  0  0  0  0  0  0  0
    9.6014    2.8365   -2.3444 C   0  0  0  0  0  0  0  0  0  0  0  0
    8.8284    3.1761   -1.2291 C   0  0  0  0  0  0  0  0  0  0  0  0
    6.2437    5.3474   -0.0827 C   0  0  0  0  0  0  0  0  0  0  0  0
    6.8466    6.2286    0.8302 C   0  0  0  0  0  0  0  0  0  0  0  0
    6.3625    7.5312    0.9849 C   0  0  0  0  0  0  0  0  0  0  0  0
    5.2916    7.9795    0.2151 C   0  0  0  0  0  0  0  0  0  0  0  0
    4.7097    7.1326   -0.7201 C   0  0  0  0  0  0  0  0  0  0  0  0
    5.1812    5.8290   -0.8676 C   0  0  0  0  0  0  0  0  0  0  0  0
    3.9505    0.0907   -0.5958 N   0  0  0  0  0  0  0  0  0  0  0  0
    3.0378   -0.7657   -0.1535 N   0  0  0  0  0  0  0  0  0  0  0  0
    2.6151   -1.8126    3.0118 H   0  0  0  0  0  0  0  0  0  0  0  0
    2.1200   -2.6335    1.5272 H   0  0  0  0  0  0  0  0  0  0  0  0
    1.1970   -1.2363    2.1148 H   0  0  0  0  0  0  0  0  0  0  0  0
    4.3356    0.4705    2.6165 H   0  0  0  0  0  0  0  0  0  0  0  0
    6.2518    1.0937   -0.5707 H   0  0  0  0  0  0  0  0  0  0  0  0
    6.3718    1.2820    1.1820 H   0  0  0  0  0  0  0  0  0  0  0  0
    6.3860    3.6769    2.4352 H   0  0  0  0  0  0  0  0  0  0  0  0
    7.3416    3.7182    0.7230 H   0  0  0  0  0  0  0  0  0  0  0  0
    5.8702    3.7524   -2.8174 H   0  0  0  0  0  0  0  0  0  0  0  0
    7.2483    3.1906   -4.7588 H   0  0  0  0  0  0  0  0  0  0  0  0
    9.6321    2.5757   -4.4830 H   0  0  0  0  0  0  0  0  0  0  0  0
   10.6524    2.5819   -2.2245 H   0  0  0  0  0  0  0  0  0  0  0  0
    9.3157    3.1876   -0.2573 H   0  0  0  0  0  0  0  0  0  0  0  0
    7.6728    5.9077    1.4599 H   0  0  0  0  0  0  0  0  0  0  0  0
    6.8064    8.1946    1.7228 H   0  0  0  0  0  0  0  0  0  0  0  0
    4.9005    8.9847    0.3507 H   0  0  0  0  0  0  0  0  0  0  0  0
    3.8684    7.4727   -1.3188 H   0  0  0  0  0  0  0  0  0  0  0  0
    4.6680    5.1870   -1.5781 H   0  0  0  0  0  0  0  0  0  0  0  0
  1  2  1  0  0  0  0
  1 26  1  0  0  0  0
  1 27  1  0  0  0  0
  1 28  1  0  0  0  0
  2  3  2  0  0  0  0
  2 25  1  0  0  0  0
  3  4  1  0  0  0  0
  3 29  1  0  0  0  0
  4  5  1  0  0  0  0
  4 24  1  0  0  0  0
  5  6  1  0  0  0  0
  5 30  1  0  0  0  0
  5 31  1  0  0  0  0
  6  7  1  6  0  0  0
  6  8  1  0  0  0  0
  6 11  1  0  0  0  0
  8  9  2  0  0  0  0
  8 10  1  0  0  0  0
 10 32  1  0  0  0  0
 11 12  1  0  0  0  0
 11 18  1  0  0  0  0
 11 33  1  0  0  0  0
 12 13  2  0  0  0  0
 12 17  1  0  0  0  0
 13 14  1  0  0  0  0
 13 34  1  0  0  0  0
 14 15  2  0  0  0  0
 14 35  1  0  0  0  0
 15 16  1  0  0  0  0
 15 36  1  0  0  0  0
 16 17  2  0  0  0  0
 16 37  1  0  0  0  0
 17 38  1  0  0  0  0
 18 19  2  0  0  0  0
 18 23  1  0  0  0  0
 19 20  1  0  0  0  0
 19 39  1  0  0  0  0
 20 21  2  0  0  0  0
 20 40  1  0  0  0  0
 21 22  1  0  0  0  0
 21 41  1  0  0  0  0
 22 23  2  0  0  0  0
 22 42  1  0  0  0  0
 23 43  1  0  0  0  0
 24 25  2  0  0  0  0
M  END
$$$$
