
 OpenBabel07132314063D

 24 25  0  0  0  0  0  0  0  0999 V2000
    1.2744   -0.7014    1.3101 C   0  0  0  0  0  0  0  0  0  0  0  0
    2.5011   -0.2634    0.6186 C   0  0  0  0  0  0  0  0  0  0  0  0
    3.6336    0.3357    1.1228 C   0  0  0  0  0  0  0  0  0  0  0  0
    4.3803    0.6045    0.0131 N   0  0  0  0  0  0  0  0  0  0  0  0
    5.6038    1.3890   -0.0740 C   0  0  0  0  0  0  0  0  0  0  0  0
    5.3525    2.8845   -0.1498 C   0  0  0  0  0  0  0  0  0  0  0  0
    4.1827    3.3949   -0.7501 C   0  0  0  0  0  0  0  0  0  0  0  0
    3.9413    4.7688   -0.8315 C   0  0  0  0  0  0  0  0  0  0  0  0
    4.8759    5.6680   -0.3351 C   0  0  0  0  0  0  0  0  0  0  0  0
    6.0598    5.1942    0.2247 C   0  0  0  0  0  0  0  0  0  0  0  0
    6.3033    3.8161    0.3074 C   0  0  0  0  0  0  0  0  0  0  0  0
    7.9786    3.2894    1.0374 Br  0  0  0  0  0  0  0  0  0  0  0  0
    3.8059    0.1009   -1.0950 N   0  0  0  0  0  0  0  0  0  0  0  0
    2.6353   -0.4083   -0.7376 N   0  0  0  0  0  0  0  0  0  0  0  0
    1.1916   -0.2376    2.2979 H   0  0  0  0  0  0  0  0  0  0  0  0
    1.2739   -1.7875    1.4364 H   0  0  0  0  0  0  0  0  0  0  0  0
    0.3892   -0.4195    0.7318 H   0  0  0  0  0  0  0  0  0  0  0  0
    3.9332    0.6260    2.1192 H   0  0  0  0  0  0  0  0  0  0  0  0
    6.1609    1.0522   -0.9553 H   0  0  0  0  0  0  0  0  0  0  0  0
    6.1715    1.1218    0.8234 H   0  0  0  0  0  0  0  0  0  0  0  0
    3.4249    2.7293   -1.1709 H   0  0  0  0  0  0  0  0  0  0  0  0
    3.0225    5.1290   -1.2892 H   0  0  0  0  0  0  0  0  0  0  0  0
    4.6900    6.7369   -0.3980 H   0  0  0  0  0  0  0  0  0  0  0  0
    6.7935    5.9092    0.5886 H   0  0  0  0  0  0  0  0  0  0  0  0
  1  2  1  0  0  0  0
  1 15  1  0  0  0  0
  1 16  1  0  0  0  0
  1 17  1  0  0  0  0
  2  3  2  0  0  0  0
  2 14  1  0  0  0  0
  3  4  1  0  0  0  0
  3 18  1  0  0  0  0
  4  5  1  0  0  0  0
  4 13  1  0  0  0  0
  5  6  1  0  0  0  0
  5 19  1  0  0  0  0
  5 20  1  0  0  0  0
  6  7  2  0  0  0  0
  6 11  1  0  0  0  0
  7  8  1  0  0  0  0
  7 21  1  0  0  0  0
  8  9  2  0  0  0  0
  8 22  1  0  0  0  0
  9 10  1  0  0  0  0
  9 23  1  0  0  0  0
 10 11  2  0  0  0  0
 10 24  1  0  0  0  0
 11 12  1  0  0  0  0
 13 14  2  0  0  0  0
M  END
$$$$
