
 OpenBabel07132314063D

 24 25  0  0  0  0  0  0  0  0999 V2000
    2.0275   -1.8672   -0.5819 C   0  0  0  0  0  0  0  0  0  0  0  0
    2.9307   -0.8134   -0.0814 C   0  0  0  0  0  0  0  0  0  0  0  0
    3.7468    0.0542   -0.7737 C   0  0  0  0  0  0  0  0  0  0  0  0
    4.4204    0.7274    0.2061 N   0  0  0  0  0  0  0  0  0  0  0  0
    5.6118    1.5451    0.0589 C   0  0  0  0  0  0  0  0  0  0  0  0
    5.3215    3.0143   -0.1201 C   0  0  0  0  0  0  0  0  0  0  0  0
    4.6993    3.7573    0.8953 C   0  0  0  0  0  0  0  0  0  0  0  0
    4.5221    5.1359    0.7585 C   0  0  0  0  0  0  0  0  0  0  0  0
    4.9646    5.7880   -0.3902 C   0  0  0  0  0  0  0  0  0  0  0  0
    5.5759    5.0616   -1.4094 C   0  0  0  0  0  0  0  0  0  0  0  0
    5.7546    3.6828   -1.2759 C   0  0  0  0  0  0  0  0  0  0  0  0
    4.0110    0.3376    1.4290 N   0  0  0  0  0  0  0  0  0  0  0  0
    3.0896   -0.6025    1.2622 N   0  0  0  0  0  0  0  0  0  0  0  0
    2.3001   -2.1686   -1.5985 H   0  0  0  0  0  0  0  0  0  0  0  0
    0.9919   -1.5166   -0.5898 H   0  0  0  0  0  0  0  0  0  0  0  0
    2.0868   -2.7555    0.0558 H   0  0  0  0  0  0  0  0  0  0  0  0
    3.9333    0.2069   -1.8256 H   0  0  0  0  0  0  0  0  0  0  0  0
    6.1629    1.1458   -0.8015 H   0  0  0  0  0  0  0  0  0  0  0  0
    6.2430    1.3929    0.9424 H   0  0  0  0  0  0  0  0  0  0  0  0
    4.3621    3.2689    1.8085 H   0  0  0  0  0  0  0  0  0  0  0  0
    4.0484    5.7024    1.5563 H   0  0  0  0  0  0  0  0  0  0  0  0
    4.8377    6.8631   -0.4884 H   0  0  0  0  0  0  0  0  0  0  0  0
    5.9262    5.5720   -2.3033 H   0  0  0  0  0  0  0  0  0  0  0  0
    6.2517    3.1411   -2.0782 H   0  0  0  0  0  0  0  0  0  0  0  0
  1  2  1  0  0  0  0
  1 14  1  0  0  0  0
  1 15  1  0  0  0  0
  1 16  1  0  0  0  0
  2  3  2  0  0  0  0
  2 13  1  0  0  0  0
  3  4  1  0  0  0  0
  3 17  1  0  0  0  0
  4  5  1  0  0  0  0
  4 12  1  0  0  0  0
  5  6  1  0  0  0  0
  5 18  1  0  0  0  0
  5 19  1  0  0  0  0
  6  7  2  0  0  0  0
  6 11  1  0  0  0  0
  7  8  1  0  0  0  0
  7 20  1  0  0  0  0
  8  9  2  0  0  0  0
  8 21  1  0  0  0  0
  9 10  1  0  0  0  0
  9 22  1  0  0  0  0
 10 11  2  0  0  0  0
 10 23  1  0  0  0  0
 11 24  1  0  0  0  0
 12 13  2  0  0  0  0
M  END
$$$$
