
 OpenBabel07132314063D

 26 27  0  0  0  0  0  0  0  0999 V2000
    0.9593   -0.3975   -0.2492 C   0  0  0  0  0  0  0  0  0  0  0  0
    2.4079   -0.1550   -0.1239 C   0  0  0  0  0  0  0  0  0  0  0  0
    3.1495    0.9676   -0.4224 C   0  0  0  0  0  0  0  0  0  0  0  0
    4.4332    0.6640   -0.0300 N   0  0  0  0  0  0  0  0  0  0  0  0
    5.6261    1.4420   -0.0664 C   0  0  0  0  0  0  0  0  0  0  0  0
    5.6676    2.8515   -0.0354 C   0  0  0  0  0  0  0  0  0  0  0  0
    4.4930    3.7125    0.3015 C   0  0  0  0  0  0  0  0  0  0  0  0
    3.6532    3.3004    1.0991 O   0  0  0  0  0  0  0  0  0  0  0  0
    4.3423    5.0752   -0.3304 C   0  0  0  0  0  0  0  0  0  0  0  0
    6.9190    3.4954   -0.1284 C   0  0  0  0  0  0  0  0  0  0  0  0
    8.1031    2.7666   -0.2579 C   0  0  0  0  0  0  0  0  0  0  0  0
    8.0646    1.3804   -0.2633 C   0  0  0  0  0  0  0  0  0  0  0  0
    6.8399    0.7235   -0.1573 C   0  0  0  0  0  0  0  0  0  0  0  0
    4.4750   -0.6489    0.3323 N   0  0  0  0  0  0  0  0  0  0  0  0
    3.2423   -1.1321    0.3286 N   0  0  0  0  0  0  0  0  0  0  0  0
    0.4108    0.5359   -0.4059 H   0  0  0  0  0  0  0  0  0  0  0  0
    0.5721   -0.8681    0.6609 H   0  0  0  0  0  0  0  0  0  0  0  0
    0.7553   -1.0642   -1.0928 H   0  0  0  0  0  0  0  0  0  0  0  0
    2.8706    1.9171   -0.8477 H   0  0  0  0  0  0  0  0  0  0  0  0
    5.2811    5.5126   -0.6679 H   0  0  0  0  0  0  0  0  0  0  0  0
    3.9223    5.7585    0.4180 H   0  0  0  0  0  0  0  0  0  0  0  0
    3.6594    5.0092   -1.1808 H   0  0  0  0  0  0  0  0  0  0  0  0
    7.0136    4.5737   -0.0435 H   0  0  0  0  0  0  0  0  0  0  0  0
    9.0581    3.2837   -0.3192 H   0  0  0  0  0  0  0  0  0  0  0  0
    8.9843    0.8060   -0.3420 H   0  0  0  0  0  0  0  0  0  0  0  0
    6.8495   -0.3674   -0.1738 H   0  0  0  0  0  0  0  0  0  0  0  0
  1  2  1  0  0  0  0
  1 16  1  0  0  0  0
  1 17  1  0  0  0  0
  1 18  1  0  0  0  0
  2  3  2  0  0  0  0
  2 15  1  0  0  0  0
  3  4  1  0  0  0  0
  3 19  1  0  0  0  0
  4  5  1  0  0  0  0
  4 14  1  0  0  0  0
  5  6  2  0  0  0  0
  5 13  1  0  0  0  0
  6  7  1  0  0  0  0
  6 10  1  0  0  0  0
  7  8  2  0  0  0  0
  7  9  1  0  0  0  0
  9 20  1  0  0  0  0
  9 21  1  0  0  0  0
  9 22  1  0  0  0  0
 10 11  2  0  0  0  0
 10 23  1  0  0  0  0
 11 12  1  0  0  0  0
 11 24  1  0  0  0  0
 12 13  2  0  0  0  0
 12 25  1  0  0  0  0
 13 26  1  0  0  0  0
 14 15  2  0  0  0  0
M  END
$$$$
