
 OpenBabel07132314063D

 24 25  0  0  0  0  0  0  0  0999 V2000
    1.1199   -0.1313    0.0852 C   0  0  0  0  0  0  0  0  0  0  0  0
    2.5872    0.0198    0.0806 C   0  0  0  0  0  0  0  0  0  0  0  0
    3.3516    1.1613    0.1260 C   0  0  0  0  0  0  0  0  0  0  0  0
    4.6542    0.7231    0.0474 N   0  0  0  0  0  0  0  0  0  0  0  0
    5.8441    1.4929   -0.0237 C   0  0  0  0  0  0  0  0  0  0  0  0
    5.7954    2.8920    0.0027 C   0  0  0  0  0  0  0  0  0  0  0  0
    6.9694    3.6381   -0.1391 C   0  0  0  0  0  0  0  0  0  0  0  0
    8.2026    3.0006   -0.3074 C   0  0  0  0  0  0  0  0  0  0  0  0
    9.4579    3.7976   -0.5064 C   0  0  0  0  0  0  0  0  0  0  0  0
    8.2529    1.6020   -0.2971 C   0  0  0  0  0  0  0  0  0  0  0  0
    7.0828    0.8492   -0.1559 C   0  0  0  0  0  0  0  0  0  0  0  0
    4.6646   -0.6323   -0.0017 N   0  0  0  0  0  0  0  0  0  0  0  0
    3.4108   -1.0657    0.0097 N   0  0  0  0  0  0  0  0  0  0  0  0
    0.6226    0.8423    0.1451 H   0  0  0  0  0  0  0  0  0  0  0  0
    0.7995   -0.7317    0.9415 H   0  0  0  0  0  0  0  0  0  0  0  0
    0.7848   -0.6268   -0.8313 H   0  0  0  0  0  0  0  0  0  0  0  0
    3.0785    2.2021    0.1839 H   0  0  0  0  0  0  0  0  0  0  0  0
    4.8642    3.4372    0.1191 H   0  0  0  0  0  0  0  0  0  0  0  0
    6.9100    4.7240   -0.1302 H   0  0  0  0  0  0  0  0  0  0  0  0
    9.2463    4.8708   -0.5596 H   0  0  0  0  0  0  0  0  0  0  0  0
    9.9404    3.5094   -1.4461 H   0  0  0  0  0  0  0  0  0  0  0  0
   10.1508    3.6286    0.3234 H   0  0  0  0  0  0  0  0  0  0  0  0
    9.2045    1.0872   -0.4139 H   0  0  0  0  0  0  0  0  0  0  0  0
    7.1569   -0.2370   -0.1687 H   0  0  0  0  0  0  0  0  0  0  0  0
  1  2  1  0  0  0  0
  1 14  1  0  0  0  0
  1 15  1  0  0  0  0
  1 16  1  0  0  0  0
  2  3  2  0  0  0  0
  2 13  1  0  0  0  0
  3  4  1  0  0  0  0
  3 17  1  0  0  0  0
  4  5  1  0  0  0  0
  4 12  1  0  0  0  0
  5  6  2  0  0  0  0
  5 11  1  0  0  0  0
  6  7  1  0  0  0  0
  6 18  1  0  0  0  0
  7  8  2  0  0  0  0
  7 19  1  0  0  0  0
  8  9  1  0  0  0  0
  8 10  1  0  0  0  0
  9 20  1  0  0  0  0
  9 21  1  0  0  0  0
  9 22  1  0  0  0  0
 10 11  2  0  0  0  0
 10 23  1  0  0  0  0
 11 24  1  0  0  0  0
 12 13  2  0  0  0  0
M  END
$$$$
