
 OpenBabel07132314063D

 20 21  0  0  0  0  0  0  0  0999 V2000
    0.9882   -0.1859    0.0285 C   0  0  0  0  0  0  0  0  0  0  0  0
    2.4558   -0.0383    0.0387 C   0  0  0  0  0  0  0  0  0  0  0  0
    3.2265    1.1019    0.0580 C   0  0  0  0  0  0  0  0  0  0  0  0
    4.5268    0.6525    0.0364 N   0  0  0  0  0  0  0  0  0  0  0  0
    5.7262    1.4056    0.0136 C   0  0  0  0  0  0  0  0  0  0  0  0
    5.7001    2.8021    0.0185 C   0  0  0  0  0  0  0  0  0  0  0  0
    6.9106    3.4751   -0.0208 C   0  0  0  0  0  0  0  0  0  0  0  0
    8.1116    2.8621   -0.0616 N   0  0  0  0  0  0  0  0  0  0  0  0
    8.1094    1.5122   -0.0622 C   0  0  0  0  0  0  0  0  0  0  0  0
    6.9579    0.7448   -0.0245 C   0  0  0  0  0  0  0  0  0  0  0  0
    4.5308   -0.7029    0.0251 N   0  0  0  0  0  0  0  0  0  0  0  0
    3.2752   -1.1295    0.0231 N   0  0  0  0  0  0  0  0  0  0  0  0
    0.4921    0.7899    0.0247 H   0  0  0  0  0  0  0  0  0  0  0  0
    0.6527   -0.7357    0.9129 H   0  0  0  0  0  0  0  0  0  0  0  0
    0.6668   -0.7335   -0.8627 H   0  0  0  0  0  0  0  0  0  0  0  0
    2.9589    2.1454    0.0742 H   0  0  0  0  0  0  0  0  0  0  0  0
    4.7851    3.3804    0.0488 H   0  0  0  0  0  0  0  0  0  0  0  0
    6.9473    4.5613   -0.0221 H   0  0  0  0  0  0  0  0  0  0  0  0
    9.0911    1.0474   -0.0967 H   0  0  0  0  0  0  0  0  0  0  0  0
    7.0370   -0.3382   -0.0295 H   0  0  0  0  0  0  0  0  0  0  0  0
  1  2  1  0  0  0  0
  1 13  1  0  0  0  0
  1 14  1  0  0  0  0
  1 15  1  0  0  0  0
  2  3  2  0  0  0  0
  2 12  1  0  0  0  0
  3  4  1  0  0  0  0
  3 16  1  0  0  0  0
  4  5  1  0  0  0  0
  4 11  1  0  0  0  0
  5  6  2  0  0  0  0
  5 10  1  0  0  0  0
  6  7  1  0  0  0  0
  6 17  1  0  0  0  0
  7  8  2  0  0  0  0
  7 18  1  0  0  0  0
  8  9  1  0  0  0  0
  9 10  2  0  0  0  0
  9 19  1  0  0  0  0
 10 20  1  0  0  0  0
 11 12  2  0  0  0  0
M  END
$$$$
