
 OpenBabel07132314063D

 25 25  0  0  0  0  0  0  0  0999 V2000
    2.1107   -1.9271    0.7189 C   0  0  0  0  0  0  0  0  0  0  0  0
    2.9311   -0.7556    0.3583 C   0  0  0  0  0  0  0  0  0  0  0  0
    4.2587   -0.4881    0.6099 C   0  0  0  0  0  0  0  0  0  0  0  0
    4.4673    0.7244    0.0240 N   0  0  0  0  0  0  0  0  0  0  0  0
    5.6861    1.5030   -0.0129 C   0  0  0  0  0  0  0  0  0  0  0  0
    5.4628    3.0105    0.1511 C   0  0  0  0  0  0  0  0  0  0  0  0
    4.6878    3.3717    1.3739 N   0  0  0  0  0  0  0  0  0  0  0  0
    5.4738    3.1424    2.8470 S   0  0  0  0  0  0  0  0  0  0  0  0
    5.5982    1.7142    3.0344 O   0  0  0  0  0  0  0  0  0  0  0  0
    6.6322    4.0070    2.8638 O   0  0  0  0  0  0  0  0  0  0  0  0
    4.2628    3.7538    3.9957 C   0  0  0  0  0  0  0  0  0  0  0  0
    3.3398    1.1904   -0.5428 N   0  0  0  0  0  0  0  0  0  0  0  0
    2.3883    0.2914   -0.3387 N   0  0  0  0  0  0  0  0  0  0  0  0
    2.6909   -2.6634    1.2833 H   0  0  0  0  0  0  0  0  0  0  0  0
    1.7290   -2.4135   -0.1844 H   0  0  0  0  0  0  0  0  0  0  0  0
    1.2567   -1.6216    1.3312 H   0  0  0  0  0  0  0  0  0  0  0  0
    5.0324   -1.0300    1.1341 H   0  0  0  0  0  0  0  0  0  0  0  0
    6.1551    1.2989   -0.9819 H   0  0  0  0  0  0  0  0  0  0  0  0
    6.3582    1.1148    0.7581 H   0  0  0  0  0  0  0  0  0  0  0  0
    4.8991    3.3953   -0.7079 H   0  0  0  0  0  0  0  0  0  0  0  0
    6.4213    3.5407    0.1497 H   0  0  0  0  0  0  0  0  0  0  0  0
    3.7542    2.9444    1.3473 H   0  0  0  0  0  0  0  0  0  0  0  0
    3.3470    3.1697    3.8783 H   0  0  0  0  0  0  0  0  0  0  0  0
    4.0847    4.8126    3.8030 H   0  0  0  0  0  0  0  0  0  0  0  0
    4.6593    3.6137    5.0040 H   0  0  0  0  0  0  0  0  0  0  0  0
  1  2  1  0  0  0  0
  1 14  1  0  0  0  0
  1 15  1  0  0  0  0
  1 16  1  0  0  0  0
  2  3  2  0  0  0  0
  2 13  1  0  0  0  0
  3  4  1  0  0  0  0
  3 17  1  0  0  0  0
  4  5  1  0  0  0  0
  4 12  1  0  0  0  0
  5  6  1  0  0  0  0
  5 18  1  0  0  0  0
  5 19  1  0  0  0  0
  6  7  1  0  0  0  0
  6 20  1  0  0  0  0
  6 21  1  0  0  0  0
  7  8  1  0  0  0  0
  7 22  1  0  0  0  0
  8  9  2  0  0  0  0
  8 10  2  0  0  0  0
  8 11  1  0  0  0  0
 11 23  1  0  0  0  0
 11 24  1  0  0  0  0
 11 25  1  0  0  0  0
 12 13  2  0  0  0  0
M  END
$$$$
