
 OpenBabel07132314063D

 22 22  0  0  1  0  0  0  0  0999 V2000
    1.6227   -1.2312    0.8702 C   0  0  0  0  0  0  0  0  0  0  0  0
    2.7370   -0.4473    0.2999 C   0  0  0  0  0  0  0  0  0  0  0  0
    3.7770    0.2051    0.9287 C   0  0  0  0  0  0  0  0  0  0  0  0
    4.4843    0.7527   -0.0933 N   0  0  0  0  0  0  0  0  0  0  0  0
    5.7014    1.5289   -0.0282 C   0  0  0  0  0  0  0  0  0  0  0  0
    5.4735    3.0447    0.0166 C   0  0  3  0  0  0  0  0  0  0  0  0
    4.8720    3.5476   -1.1793 O   0  0  0  0  0  0  0  0  0  0  0  0
    4.6679    3.5086    1.2372 C   0  0  0  0  0  0  0  0  0  0  0  0
    4.6467    4.9323    1.3347 O   0  0  0  0  0  0  0  0  0  0  0  0
    3.9161    0.4840   -1.2841 N   0  0  0  0  0  0  0  0  0  0  0  0
    2.8486   -0.2655   -1.0555 N   0  0  0  0  0  0  0  0  0  0  0  0
    1.6396   -1.2027    1.9631 H   0  0  0  0  0  0  0  0  0  0  0  0
    1.6905   -2.2774    0.5538 H   0  0  0  0  0  0  0  0  0  0  0  0
    0.6618   -0.8295    0.5340 H   0  0  0  0  0  0  0  0  0  0  0  0
    4.0416    0.3174    1.9658 H   0  0  0  0  0  0  0  0  0  0  0  0
    6.2922    1.2652   -0.9172 H   0  0  0  0  0  0  0  0  0  0  0  0
    6.2513    1.1865    0.8589 H   0  0  0  0  0  0  0  0  0  0  0  0
    6.4606    3.5268    0.0584 H   0  0  0  0  0  0  0  0  0  0  0  0
    4.0315    3.0687   -1.3308 H   0  0  0  0  0  0  0  0  0  0  0  0
    5.1173    3.1301    2.1602 H   0  0  0  0  0  0  0  0  0  0  0  0
    3.6301    3.1723    1.1807 H   0  0  0  0  0  0  0  0  0  0  0  0
    5.0924    5.2978    0.5473 H   0  0  0  0  0  0  0  0  0  0  0  0
  1  2  1  0  0  0  0
  1 12  1  0  0  0  0
  1 13  1  0  0  0  0
  1 14  1  0  0  0  0
  2  3  2  0  0  0  0
  2 11  1  0  0  0  0
  3  4  1  0  0  0  0
  3 15  1  0  0  0  0
  4  5  1  0  0  0  0
  4 10  1  0  0  0  0
  5  6  1  0  0  0  0
  5 16  1  0  0  0  0
  5 17  1  0  0  0  0
  6  7  1  0  0  0  0
  6  8  1  0  0  0  0
  6 18  1  0  0  0  0
  7 19  1  0  0  0  0
  8  9  1  0  0  0  0
  8 20  1  0  0  0  0
  8 21  1  0  0  0  0
  9 22  1  0  0  0  0
 10 11  2  0  0  0  0
M  END
$$$$
