
 OpenBabel07132314063D

 33 35  0  0  0  0  0  0  0  0999 V2000
    0.9466   -0.1731   -0.0541 C   0  0  0  0  0  0  0  0  0  0  0  0
    2.4145   -0.0254   -0.0340 C   0  0  0  0  0  0  0  0  0  0  0  0
    3.1749    1.1201   -0.0318 C   0  0  0  0  0  0  0  0  0  0  0  0
    4.4780    0.6830   -0.0022 N   0  0  0  0  0  0  0  0  0  0  0  0
    5.6649    1.4545    0.0168 C   0  0  0  0  0  0  0  0  0  0  0  0
    5.5988    2.8441    0.0110 C   0  0  0  0  0  0  0  0  0  0  0  0
    6.7931    3.5382    0.0300 C   0  0  0  0  0  0  0  0  0  0  0  0
    6.7708    5.0297    0.0243 C   0  0  0  0  0  0  0  0  0  0  0  0
    5.7566    5.7046    0.0190 O   0  0  0  0  0  0  0  0  0  0  0  0
    8.0289    5.5271    0.0245 O   0  0  0  0  0  0  0  0  0  0  0  0
    8.0291    2.9625    0.0464 N   0  0  0  0  0  0  0  0  0  0  0  0
    8.0847    1.6027    0.0380 C   0  0  0  0  0  0  0  0  0  0  0  0
    9.4467    1.0179    0.0046 C   0  0  0  0  0  0  0  0  0  0  0  0
   10.5418    1.6954    0.5759 C   0  0  0  0  0  0  0  0  0  0  0  0
   11.8398    1.1742    0.5181 C   0  0  0  0  0  0  0  0  0  0  0  0
   12.0751   -0.0428   -0.1123 C   0  0  0  0  0  0  0  0  0  0  0  0
   11.0129   -0.7404   -0.6777 C   0  0  0  0  0  0  0  0  0  0  0  0
    9.7161   -0.2158   -0.6199 C   0  0  0  0  0  0  0  0  0  0  0  0
    6.9207    0.8268    0.0360 C   0  0  0  0  0  0  0  0  0  0  0  0
    4.4976   -0.6710    0.0022 N   0  0  0  0  0  0  0  0  0  0  0  0
    3.2439   -1.1094   -0.0144 N   0  0  0  0  0  0  0  0  0  0  0  0
    0.4535    0.8045   -0.0686 H   0  0  0  0  0  0  0  0  0  0  0  0
    0.6045   -0.7117    0.8344 H   0  0  0  0  0  0  0  0  0  0  0  0
    0.6287   -0.7263   -0.9426 H   0  0  0  0  0  0  0  0  0  0  0  0
    2.8926    2.1604   -0.0472 H   0  0  0  0  0  0  0  0  0  0  0  0
    4.6678    3.3984   -0.0073 H   0  0  0  0  0  0  0  0  0  0  0  0
    8.6692    4.7779    0.0179 H   0  0  0  0  0  0  0  0  0  0  0  0
   10.3919    2.6486    1.0798 H   0  0  0  0  0  0  0  0  0  0  0  0
   12.6662    1.7234    0.9629 H   0  0  0  0  0  0  0  0  0  0  0  0
   13.0836   -0.4451   -0.1666 H   0  0  0  0  0  0  0  0  0  0  0  0
   11.1914   -1.6914   -1.1741 H   0  0  0  0  0  0  0  0  0  0  0  0
    8.9211   -0.7858   -1.0958 H   0  0  0  0  0  0  0  0  0  0  0  0
    6.9901   -0.2587    0.0558 H   0  0  0  0  0  0  0  0  0  0  0  0
  1  2  1  0  0  0  0
  1 22  1  0  0  0  0
  1 23  1  0  0  0  0
  1 24  1  0  0  0  0
  2  3  2  0  0  0  0
  2 21  1  0  0  0  0
  3  4  1  0  0  0  0
  3 25  1  0  0  0  0
  4  5  1  0  0  0  0
  4 20  1  0  0  0  0
  5  6  2  0  0  0  0
  5 19  1  0  0  0  0
  6  7  1  0  0  0  0
  6 26  1  0  0  0  0
  7  8  1  0  0  0  0
  7 11  2  0  0  0  0
  8  9  2  0  0  0  0
  8 10  1  0  0  0  0
 10 27  1  0  0  0  0
 11 12  1  0  0  0  0
 12 13  1  0  0  0  0
 12 19  2  0  0  0  0
 13 14  2  0  0  0  0
 13 18  1  0  0  0  0
 14 15  1  0  0  0  0
 14 28  1  0  0  0  0
 15 16  2  0  0  0  0
 15 29  1  0  0  0  0
 16 17  1  0  0  0  0
 16 30  1  0  0  0  0
 17 18  2  0  0  0  0
 17 31  1  0  0  0  0
 18 32  1  0  0  0  0
 19 33  1  0  0  0  0
 20 21  2  0  0  0  0
M  END
$$$$
