
 OpenBabel07132314063D

 25 25  0  0  1  0  0  0  0  0999 V2000
    1.0325   -0.3357   -0.5539 C   0  0  0  0  0  0  0  0  0  0  0  0
    2.4498   -0.0677   -0.2459 C   0  0  0  0  0  0  0  0  0  0  0  0
    3.2513    0.9885   -0.6177 C   0  0  0  0  0  0  0  0  0  0  0  0
    4.4561    0.7142   -0.0381 N   0  0  0  0  0  0  0  0  0  0  0  0
    5.7003    1.4621   -0.0922 C   0  0  3  0  0  0  0  0  0  0  0  0
    6.5005    1.0908   -1.3388 C   0  0  0  0  0  0  0  0  0  0  0  0
    7.8087    1.6725   -1.2546 O   0  0  0  0  0  0  0  0  0  0  0  0
    8.5526    1.4715   -2.4503 C   0  0  0  0  0  0  0  0  0  0  0  0
    5.4219    2.9559   -0.0495 C   0  0  0  0  0  0  0  0  0  0  0  0
    5.2114    3.6493   -1.0421 O   0  0  0  0  0  0  0  0  0  0  0  0
    5.3475    3.5181    1.1966 N   0  0  0  0  0  0  0  0  0  0  0  0
    4.4105   -0.4501    0.6371 N   0  0  0  0  0  0  0  0  0  0  0  0
    3.1835   -0.9366    0.5168 N   0  0  0  0  0  0  0  0  0  0  0  0
    0.5715    0.5075   -1.0784 H   0  0  0  0  0  0  0  0  0  0  0  0
    0.4685   -0.5108    0.3675 H   0  0  0  0  0  0  0  0  0  0  0  0
    0.9414   -1.2236   -1.1870 H   0  0  0  0  0  0  0  0  0  0  0  0
    3.0656    1.8731   -1.2113 H   0  0  0  0  0  0  0  0  0  0  0  0
    6.2810    1.2028    0.8030 H   0  0  0  0  0  0  0  0  0  0  0  0
    5.9970    1.4307   -2.2521 H   0  0  0  0  0  0  0  0  0  0  0  0
    6.6192    0.0016   -1.4008 H   0  0  0  0  0  0  0  0  0  0  0  0
    9.5213    1.9670   -2.3402 H   0  0  0  0  0  0  0  0  0  0  0  0
    8.0327    1.9100   -3.3078 H   0  0  0  0  0  0  0  0  0  0  0  0
    8.7209    0.4038   -2.6161 H   0  0  0  0  0  0  0  0  0  0  0  0
    5.4185    2.9904    2.0571 H   0  0  0  0  0  0  0  0  0  0  0  0
    5.1538    4.5105    1.2547 H   0  0  0  0  0  0  0  0  0  0  0  0
  1  2  1  0  0  0  0
  1 14  1  0  0  0  0
  1 15  1  0  0  0  0
  1 16  1  0  0  0  0
  2  3  2  0  0  0  0
  2 13  1  0  0  0  0
  3  4  1  0  0  0  0
  3 17  1  0  0  0  0
  4  5  1  0  0  0  0
  4 12  1  0  0  0  0
  5  6  1  0  0  0  0
  5  9  1  0  0  0  0
  5 18  1  0  0  0  0
  6  7  1  0  0  0  0
  6 19  1  0  0  0  0
  6 20  1  0  0  0  0
  7  8  1  0  0  0  0
  8 21  1  0  0  0  0
  8 22  1  0  0  0  0
  8 23  1  0  0  0  0
  9 10  2  0  0  0  0
  9 11  1  0  0  0  0
 11 24  1  0  0  0  0
 11 25  1  0  0  0  0
 12 13  2  0  0  0  0
M  END
$$$$
