
 OpenBabel07132314063D

 26 27  0  0  0  0  0  0  0  0999 V2000
    1.9102   -1.5303    0.7547 C   0  0  0  0  0  0  0  0  0  0  0  0
    2.8914   -0.5469    0.2566 C   0  0  0  0  0  0  0  0  0  0  0  0
    4.1037   -0.1599    0.7788 C   0  0  0  0  0  0  0  0  0  0  0  0
    4.5612    0.7682   -0.1069 N   0  0  0  0  0  0  0  0  0  0  0  0
    5.7920    1.5248   -0.0541 C   0  0  0  0  0  0  0  0  0  0  0  0
    5.5792    3.0344    0.0367 C   0  0  0  0  0  0  0  0  0  0  0  0
    4.8129    3.4397    1.2871 C   0  0  0  0  0  0  0  0  0  0  0  0
    5.5274    3.0304    2.4588 O   0  0  0  0  0  0  0  0  0  0  0  0
    5.1439    4.0018    3.4290 C   0  0  0  0  0  0  0  0  0  0  0  0
    5.0371    5.2724    2.6259 C   0  0  0  0  0  0  0  0  0  0  0  0
    4.6273    4.8585    1.3216 O   0  0  0  0  0  0  0  0  0  0  0  0
    3.6950    0.9503   -1.1160 N   0  0  0  0  0  0  0  0  0  0  0  0
    2.6597    0.1491   -0.9017 N   0  0  0  0  0  0  0  0  0  0  0  0
    2.2450   -1.9864    1.6918 H   0  0  0  0  0  0  0  0  0  0  0  0
    1.7645   -2.3284    0.0203 H   0  0  0  0  0  0  0  0  0  0  0  0
    0.9443   -1.0485    0.9362 H   0  0  0  0  0  0  0  0  0  0  0  0
    4.6513   -0.4523    1.6629 H   0  0  0  0  0  0  0  0  0  0  0  0
    6.3516    1.2780   -0.9642 H   0  0  0  0  0  0  0  0  0  0  0  0
    6.3780    1.1592    0.7968 H   0  0  0  0  0  0  0  0  0  0  0  0
    5.0552    3.4088   -0.8517 H   0  0  0  0  0  0  0  0  0  0  0  0
    6.5618    3.5234    0.0384 H   0  0  0  0  0  0  0  0  0  0  0  0
    3.8167    2.9813    1.3085 H   0  0  0  0  0  0  0  0  0  0  0  0
    5.8820    4.0623    4.2338 H   0  0  0  0  0  0  0  0  0  0  0  0
    4.1770    3.7057    3.8504 H   0  0  0  0  0  0  0  0  0  0  0  0
    6.0077    5.7689    2.5307 H   0  0  0  0  0  0  0  0  0  0  0  0
    4.3167    5.9800    3.0455 H   0  0  0  0  0  0  0  0  0  0  0  0
  1  2  1  0  0  0  0
  1 14  1  0  0  0  0
  1 15  1  0  0  0  0
  1 16  1  0  0  0  0
  2  3  2  0  0  0  0
  2 13  1  0  0  0  0
  3  4  1  0  0  0  0
  3 17  1  0  0  0  0
  4  5  1  0  0  0  0
  4 12  1  0  0  0  0
  5  6  1  0  0  0  0
  5 18  1  0  0  0  0
  5 19  1  0  0  0  0
  6  7  1  0  0  0  0
  6 20  1  0  0  0  0
  6 21  1  0  0  0  0
  7  8  1  0  0  0  0
  7 11  1  0  0  0  0
  7 22  1  0  0  0  0
  8  9  1  0  0  0  0
  9 10  1  0  0  0  0
  9 23  1  0  0  0  0
  9 24  1  0  0  0  0
 10 11  1  0  0  0  0
 10 25  1  0  0  0  0
 10 26  1  0  0  0  0
 12 13  2  0  0  0  0
M  END
$$$$
