
 OpenBabel07132314063D

 21 22  0  0  0  0  0  0  0  0999 V2000
    1.0298   -0.0564   -0.0824 C   0  0  0  0  0  0  0  0  0  0  0  0
    2.5043   -0.0246   -0.0900 C   0  0  0  0  0  0  0  0  0  0  0  0
    3.3679    1.0438   -0.1354 C   0  0  0  0  0  0  0  0  0  0  0  0
    4.6292    0.4876   -0.0634 N   0  0  0  0  0  0  0  0  0  0  0  0
    5.8642    1.1960    0.0208 C   0  0  0  0  0  0  0  0  0  0  0  0
    5.7614    2.5642    0.0332 N   0  0  0  0  0  0  0  0  0  0  0  0
    6.8894    3.2900    0.1859 C   0  0  0  0  0  0  0  0  0  0  0  0
    8.1392    2.7266    0.3393 C   0  0  0  0  0  0  0  0  0  0  0  0
    8.2399    1.3394    0.3040 C   0  0  0  0  0  0  0  0  0  0  0  0
    7.0951    0.5434    0.1289 C   0  0  0  0  0  0  0  0  0  0  0  0
    7.2961   -0.8733    0.0574 C   0  0  0  0  0  0  0  0  0  0  0  0
    7.5624   -2.0020   -0.0086 N   0  0  0  0  0  0  0  0  0  0  0  0
    4.5178   -0.8577   -0.0237 N   0  0  0  0  0  0  0  0  0  0  0  0
    3.2315   -1.1786   -0.0317 N   0  0  0  0  0  0  0  0  0  0  0  0
    0.6090    0.9536   -0.1108 H   0  0  0  0  0  0  0  0  0  0  0  0
    0.6661   -0.5500    0.8244 H   0  0  0  0  0  0  0  0  0  0  0  0
    0.6548   -0.6088   -0.9490 H   0  0  0  0  0  0  0  0  0  0  0  0
    3.2168    2.1120   -0.1813 H   0  0  0  0  0  0  0  0  0  0  0  0
    6.7545    4.3685    0.1877 H   0  0  0  0  0  0  0  0  0  0  0  0
    9.0174    3.3491    0.4769 H   0  0  0  0  0  0  0  0  0  0  0  0
    9.2201    0.8759    0.4136 H   0  0  0  0  0  0  0  0  0  0  0  0
  1  2  1  0  0  0  0
  1 15  1  0  0  0  0
  1 16  1  0  0  0  0
  1 17  1  0  0  0  0
  2  3  2  0  0  0  0
  2 14  1  0  0  0  0
  3  4  1  0  0  0  0
  3 18  1  0  0  0  0
  4  5  1  0  0  0  0
  4 13  1  0  0  0  0
  5  6  2  0  0  0  0
  5 10  1  0  0  0  0
  6  7  1  0  0  0  0
  7  8  2  0  0  0  0
  7 19  1  0  0  0  0
  8  9  1  0  0  0  0
  8 20  1  0  0  0  0
  9 10  2  0  0  0  0
  9 21  1  0  0  0  0
 10 11  1  0  0  0  0
 11 12  3  0  0  0  0
 13 14  2  0  0  0  0
M  END
$$$$
