
 OpenBabel07132314063D

 26 27  0  0  0  0  0  0  0  0999 V2000
    1.5414   -0.8694   -0.9213 C   0  0  0  0  0  0  0  0  0  0  0  0
    2.7565   -0.2700   -0.3379 C   0  0  0  0  0  0  0  0  0  0  0  0
    3.6019    0.6814   -0.8588 C   0  0  0  0  0  0  0  0  0  0  0  0
    4.5421    0.8622    0.1126 N   0  0  0  0  0  0  0  0  0  0  0  0
    5.7365    1.6816    0.0758 C   0  0  0  0  0  0  0  0  0  0  0  0
    5.4114    3.1328   -0.1677 C   0  0  0  0  0  0  0  0  0  0  0  0
    4.7529    3.4591   -1.1534 O   0  0  0  0  0  0  0  0  0  0  0  0
    5.9712    4.0044    0.7416 N   0  0  0  0  0  0  0  0  0  0  0  0
    5.7774    5.3812    0.7145 C   0  0  0  0  0  0  0  0  0  0  0  0
    4.8157    5.9167   -0.0438 N   0  0  0  0  0  0  0  0  0  0  0  0
    4.7203    7.2545   -0.0720 C   0  0  0  0  0  0  0  0  0  0  0  0
    5.5562    8.0784    0.6341 C   0  0  0  0  0  0  0  0  0  0  0  0
    6.4929    7.4365    1.4093 C   0  0  0  0  0  0  0  0  0  0  0  0
    6.6172    6.0937    1.4812 N   0  0  0  0  0  0  0  0  0  0  0  0
    4.3123    0.0540    1.1639 N   0  0  0  0  0  0  0  0  0  0  0  0
    3.2118   -0.6399    0.9010 N   0  0  0  0  0  0  0  0  0  0  0  0
    1.3520   -0.4820   -1.9277 H   0  0  0  0  0  0  0  0  0  0  0  0
    0.6683   -0.6458   -0.3012 H   0  0  0  0  0  0  0  0  0  0  0  0
    1.6489   -1.9558   -0.9910 H   0  0  0  0  0  0  0  0  0  0  0  0
    3.6026    1.2325   -1.7890 H   0  0  0  0  0  0  0  0  0  0  0  0
    6.3589    1.3171   -0.7477 H   0  0  0  0  0  0  0  0  0  0  0  0
    6.2843    1.5393    1.0128 H   0  0  0  0  0  0  0  0  0  0  0  0
    6.6661    3.7116    1.4108 H   0  0  0  0  0  0  0  0  0  0  0  0
    3.9313    7.6447   -0.7078 H   0  0  0  0  0  0  0  0  0  0  0  0
    5.4802    9.1548    0.5801 H   0  0  0  0  0  0  0  0  0  0  0  0
    7.2010    8.0033    2.0072 H   0  0  0  0  0  0  0  0  0  0  0  0
  1  2  1  0  0  0  0
  1 17  1  0  0  0  0
  1 18  1  0  0  0  0
  1 19  1  0  0  0  0
  2  3  2  0  0  0  0
  2 16  1  0  0  0  0
  3  4  1  0  0  0  0
  3 20  1  0  0  0  0
  4  5  1  0  0  0  0
  4 15  1  0  0  0  0
  5  6  1  0  0  0  0
  5 21  1  0  0  0  0
  5 22  1  0  0  0  0
  6  7  2  0  0  0  0
  6  8  1  0  0  0  0
  8  9  1  0  0  0  0
  8 23  1  0  0  0  0
  9 10  2  0  0  0  0
  9 14  1  0  0  0  0
 10 11  1  0  0  0  0
 11 12  2  0  0  0  0
 11 24  1  0  0  0  0
 12 13  1  0  0  0  0
 12 25  1  0  0  0  0
 13 14  2  0  0  0  0
 13 26  1  0  0  0  0
 15 16  2  0  0  0  0
M  END
$$$$
