
 OpenBabel07132314063D

 36 38  0  0  0  0  0  0  0  0999 V2000
    0.9912   -0.1246    0.0582 C   0  0  0  0  0  0  0  0  0  0  0  0
    2.4539    0.0445    0.1494 C   0  0  0  0  0  0  0  0  0  0  0  0
    3.2126    1.1927    0.1308 C   0  0  0  0  0  0  0  0  0  0  0  0
    4.5152    0.7604    0.2339 N   0  0  0  0  0  0  0  0  0  0  0  0
    5.7134    1.5210    0.1856 C   0  0  0  0  0  0  0  0  0  0  0  0
    5.6771    2.9110   -0.0039 C   0  0  0  0  0  0  0  0  0  0  0  0
    6.8667    3.6270   -0.1698 C   0  0  0  0  0  0  0  0  0  0  0  0
    8.0899    2.9530   -0.1420 C   0  0  0  0  0  0  0  0  0  0  0  0
    9.5995    3.8559   -0.4239 S   0  0  0  0  0  0  0  0  0  0  0  0
    9.3337    5.2252   -0.0180 O   0  0  0  0  0  0  0  0  0  0  0  0
   10.6767    3.0998    0.1863 O   0  0  0  0  0  0  0  0  0  0  0  0
    9.9356    3.8855   -2.1728 C   0  0  0  0  0  0  0  0  0  0  0  0
   10.5597    5.0106   -2.7196 C   0  0  0  0  0  0  0  0  0  0  0  0
   10.8865    5.0316   -4.0785 C   0  0  0  0  0  0  0  0  0  0  0  0
   10.5588    3.9572   -4.9108 C   0  0  0  0  0  0  0  0  0  0  0  0
   11.0419    3.9136   -6.2222 N   0  0  0  0  0  0  0  0  0  0  0  0
    9.9632    2.8249   -4.3414 C   0  0  0  0  0  0  0  0  0  0  0  0
    9.6285    2.7911   -2.9825 C   0  0  0  0  0  0  0  0  0  0  0  0
    8.1421    1.5848    0.1370 C   0  0  0  0  0  0  0  0  0  0  0  0
    6.9529    0.8671    0.2883 C   0  0  0  0  0  0  0  0  0  0  0  0
    4.5296   -0.5917    0.3307 N   0  0  0  0  0  0  0  0  0  0  0  0
    3.2811   -1.0340    0.2708 N   0  0  0  0  0  0  0  0  0  0  0  0
    0.4836    0.8425   -0.0144 H   0  0  0  0  0  0  0  0  0  0  0  0
    0.6122   -0.6426    0.9443 H   0  0  0  0  0  0  0  0  0  0  0  0
    0.7285   -0.7139   -0.8258 H   0  0  0  0  0  0  0  0  0  0  0  0
    2.9365    2.2308    0.0451 H   0  0  0  0  0  0  0  0  0  0  0  0
    4.7434    3.4645   -0.0451 H   0  0  0  0  0  0  0  0  0  0  0  0
    6.8282    4.7036   -0.3269 H   0  0  0  0  0  0  0  0  0  0  0  0
   10.8252    5.8583   -2.0905 H   0  0  0  0  0  0  0  0  0  0  0  0
   11.4181    5.8909   -4.4792 H   0  0  0  0  0  0  0  0  0  0  0  0
   11.1737    4.8245   -6.6506 H   0  0  0  0  0  0  0  0  0  0  0  0
   10.5573    3.2636   -6.8325 H   0  0  0  0  0  0  0  0  0  0  0  0
    9.7683    1.9479   -4.9560 H   0  0  0  0  0  0  0  0  0  0  0  0
    9.1675    1.8934   -2.5815 H   0  0  0  0  0  0  0  0  0  0  0  0
    9.0956    1.0658    0.2195 H   0  0  0  0  0  0  0  0  0  0  0  0
    7.0109   -0.2052    0.4740 H   0  0  0  0  0  0  0  0  0  0  0  0
  1  2  1  0  0  0  0
  1 23  1  0  0  0  0
  1 24  1  0  0  0  0
  1 25  1  0  0  0  0
  2  3  2  0  0  0  0
  2 22  1  0  0  0  0
  3  4  1  0  0  0  0
  3 26  1  0  0  0  0
  4  5  1  0  0  0  0
  4 21  1  0  0  0  0
  5  6  2  0  0  0  0
  5 20  1  0  0  0  0
  6  7  1  0  0  0  0
  6 27  1  0  0  0  0
  7  8  2  0  0  0  0
  7 28  1  0  0  0  0
  8  9  1  0  0  0  0
  8 19  1  0  0  0  0
  9 10  2  0  0  0  0
  9 11  2  0  0  0  0
  9 12  1  0  0  0  0
 12 13  2  0  0  0  0
 12 18  1  0  0  0  0
 13 14  1  0  0  0  0
 13 29  1  0  0  0  0
 14 15  2  0  0  0  0
 14 30  1  0  0  0  0
 15 16  1  0  0  0  0
 15 17  1  0  0  0  0
 16 31  1  0  0  0  0
 16 32  1  0  0  0  0
 17 18  2  0  0  0  0
 17 33  1  0  0  0  0
 18 34  1  0  0  0  0
 19 20  2  0  0  0  0
 19 35  1  0  0  0  0
 20 36  1  0  0  0  0
 21 22  2  0  0  0  0
M  END
$$$$
