
 OpenBabel07132314063D

 23 24  0  0  0  0  0  0  0  0999 V2000
    1.0258   -0.1658    0.0292 C   0  0  0  0  0  0  0  0  0  0  0  0
    2.4932   -0.0171    0.0227 C   0  0  0  0  0  0  0  0  0  0  0  0
    3.2607    1.1239    0.0727 C   0  0  0  0  0  0  0  0  0  0  0  0
    4.5610    0.6817   -0.0077 N   0  0  0  0  0  0  0  0  0  0  0  0
    5.7564    1.4457   -0.0729 C   0  0  0  0  0  0  0  0  0  0  0  0
    5.7125    2.8482   -0.0420 C   0  0  0  0  0  0  0  0  0  0  0  0
    6.8905    3.5914   -0.1692 C   0  0  0  0  0  0  0  0  0  0  0  0
    8.1160    2.9319   -0.3243 C   0  0  0  0  0  0  0  0  0  0  0  0
    9.3445    3.7173   -0.5004 N   0  3  0  0  0  0  0  0  0  0  0  0
    9.2404    4.9528   -0.5104 O   0  0  0  0  0  0  0  0  0  0  0  0
   10.4097    3.1004   -0.6348 O   0  5  0  0  0  0  0  0  0  0  0  0
    8.1745    1.5330   -0.3289 C   0  0  0  0  0  0  0  0  0  0  0  0
    6.9941    0.7925   -0.2013 C   0  0  0  0  0  0  0  0  0  0  0  0
    4.5697   -0.6722   -0.0619 N   0  0  0  0  0  0  0  0  0  0  0  0
    3.3155   -1.1037   -0.0521 N   0  0  0  0  0  0  0  0  0  0  0  0
    0.5297    0.8085    0.0853 H   0  0  0  0  0  0  0  0  0  0  0  0
    0.7049   -0.7621    0.8884 H   0  0  0  0  0  0  0  0  0  0  0  0
    0.6895   -0.6647   -0.8850 H   0  0  0  0  0  0  0  0  0  0  0  0
    2.9883    2.1645    0.1330 H   0  0  0  0  0  0  0  0  0  0  0  0
    4.7803    3.3951    0.0675 H   0  0  0  0  0  0  0  0  0  0  0  0
    6.8325    4.6787   -0.1570 H   0  0  0  0  0  0  0  0  0  0  0  0
    9.1202    1.0059   -0.4428 H   0  0  0  0  0  0  0  0  0  0  0  0
    7.0573   -0.2960   -0.2195 H   0  0  0  0  0  0  0  0  0  0  0  0
  1  2  1  0  0  0  0
  1 16  1  0  0  0  0
  1 17  1  0  0  0  0
  1 18  1  0  0  0  0
  2  3  2  0  0  0  0
  2 15  1  0  0  0  0
  3  4  1  0  0  0  0
  3 19  1  0  0  0  0
  4  5  1  0  0  0  0
  4 14  1  0  0  0  0
  5  6  2  0  0  0  0
  5 13  1  0  0  0  0
  6  7  1  0  0  0  0
  6 20  1  0  0  0  0
  7  8  2  0  0  0  0
  7 21  1  0  0  0  0
  8  9  1  0  0  0  0
  8 12  1  0  0  0  0
  9 10  2  0  0  0  0
  9 11  1  0  0  0  0
 12 13  2  0  0  0  0
 12 22  1  0  0  0  0
 13 23  1  0  0  0  0
 14 15  2  0  0  0  0
M  CHG  2   9   1  11  -1
M  END
$$$$
