
 OpenBabel07132314063D

 34 35  0  0  1  0  0  0  0  0999 V2000
    1.7691   -1.4274    1.1791 C   0  0  0  0  0  0  0  0  0  0  0  0
    2.8188   -0.6318    0.5201 C   0  0  0  0  0  0  0  0  0  0  0  0
    3.8420    0.1018    1.0777 C   0  0  0  0  0  0  0  0  0  0  0  0
    4.4996    0.6112    0.0004 N   0  0  0  0  0  0  0  0  0  0  0  0
    5.7343    1.3640   -0.0062 C   0  0  0  0  0  0  0  0  0  0  0  0
    5.5088    2.8798   -0.0084 C   0  0  3  0  0  0  0  0  0  0  0  0
    4.8397    3.2813    1.1958 O   0  0  0  0  0  0  0  0  0  0  0  0
    6.8256    3.6683   -0.0870 C   0  0  0  0  0  0  0  0  0  0  0  0
    7.6138    3.4102   -1.3715 C   0  0  0  0  0  0  0  0  0  0  0  0
    8.9246    4.1535   -1.3919 C   0  0  0  0  0  0  0  0  0  0  0  0
   10.0780    3.5684   -0.8500 C   0  0  0  0  0  0  0  0  0  0  0  0
   11.2968    4.2464   -0.8835 C   0  0  0  0  0  0  0  0  0  0  0  0
   11.3721    5.5158   -1.4525 C   0  0  0  0  0  0  0  0  0  0  0  0
   10.2285    6.1102   -1.9835 C   0  0  0  0  0  0  0  0  0  0  0  0
    9.0080    5.4343   -1.9505 C   0  0  0  0  0  0  0  0  0  0  0  0
    3.9394    0.2145   -1.1535 N   0  0  0  0  0  0  0  0  0  0  0  0
    2.8959   -0.5462   -0.8460 N   0  0  0  0  0  0  0  0  0  0  0  0
    1.8750   -1.3954    2.2683 H   0  0  0  0  0  0  0  0  0  0  0  0
    1.8297   -2.4730    0.8627 H   0  0  0  0  0  0  0  0  0  0  0  0
    0.7789   -1.0419    0.9203 H   0  0  0  0  0  0  0  0  0  0  0  0
    4.1411    0.2940    2.0963 H   0  0  0  0  0  0  0  0  0  0  0  0
    6.2900    1.0331   -0.8892 H   0  0  0  0  0  0  0  0  0  0  0  0
    6.2986    1.0585    0.8820 H   0  0  0  0  0  0  0  0  0  0  0  0
    4.8581    3.1660   -0.8429 H   0  0  0  0  0  0  0  0  0  0  0  0
    5.4283    3.1264    1.9541 H   0  0  0  0  0  0  0  0  0  0  0  0
    7.4409    3.4345    0.7925 H   0  0  0  0  0  0  0  0  0  0  0  0
    6.6013    4.7404    0.0025 H   0  0  0  0  0  0  0  0  0  0  0  0
    7.0127    3.6914   -2.2448 H   0  0  0  0  0  0  0  0  0  0  0  0
    7.8359    2.3444   -1.4892 H   0  0  0  0  0  0  0  0  0  0  0  0
   10.0378    2.5754   -0.4084 H   0  0  0  0  0  0  0  0  0  0  0  0
   12.1886    3.7819   -0.4710 H   0  0  0  0  0  0  0  0  0  0  0  0
   12.3227    6.0415   -1.4846 H   0  0  0  0  0  0  0  0  0  0  0  0
   10.2878    7.0997   -2.4289 H   0  0  0  0  0  0  0  0  0  0  0  0
    8.1254    5.9101   -2.3720 H   0  0  0  0  0  0  0  0  0  0  0  0
  1  2  1  0  0  0  0
  1 18  1  0  0  0  0
  1 19  1  0  0  0  0
  1 20  1  0  0  0  0
  2  3  2  0  0  0  0
  2 17  1  0  0  0  0
  3  4  1  0  0  0  0
  3 21  1  0  0  0  0
  4  5  1  0  0  0  0
  4 16  1  0  0  0  0
  5  6  1  0  0  0  0
  5 22  1  0  0  0  0
  5 23  1  0  0  0  0
  6  7  1  0  0  0  0
  6  8  1  0  0  0  0
  6 24  1  0  0  0  0
  7 25  1  0  0  0  0
  8  9  1  0  0  0  0
  8 26  1  0  0  0  0
  8 27  1  0  0  0  0
  9 10  1  0  0  0  0
  9 28  1  0  0  0  0
  9 29  1  0  0  0  0
 10 11  2  0  0  0  0
 10 15  1  0  0  0  0
 11 12  1  0  0  0  0
 11 30  1  0  0  0  0
 12 13  2  0  0  0  0
 12 31  1  0  0  0  0
 13 14  1  0  0  0  0
 13 32  1  0  0  0  0
 14 15  2  0  0  0  0
 14 33  1  0  0  0  0
 15 34  1  0  0  0  0
 16 17  2  0  0  0  0
M  END
$$$$
