
 OpenBabel07132314063D

 24 25  0  0  0  0  0  0  0  0999 V2000
    2.3454   -2.0605    0.2008 C   0  0  0  0  0  0  0  0  0  0  0  0
    3.1352   -0.8159    0.1412 C   0  0  0  0  0  0  0  0  0  0  0  0
    4.4929   -0.6412    0.0048 C   0  0  0  0  0  0  0  0  0  0  0  0
    4.6791    0.7213    0.0199 N   0  0  0  0  0  0  0  0  0  0  0  0
    5.8896    1.4552   -0.0869 C   0  0  0  0  0  0  0  0  0  0  0  0
    5.8583    2.8609   -0.0509 C   0  0  0  0  0  0  0  0  0  0  0  0
    7.0395    3.6069   -0.1634 C   0  0  0  0  0  0  0  0  0  0  0  0
    8.2617    2.9562   -0.3168 C   0  0  0  0  0  0  0  0  0  0  0  0
    9.4124    3.6811   -0.4052 O   0  0  0  0  0  0  0  0  0  0  0  0
    8.2871    1.5627   -0.3513 C   0  0  0  0  0  0  0  0  0  0  0  0
    9.5414    0.8566   -0.5203 N   0  3  0  0  0  0  0  0  0  0  0  0
   10.1624    1.0361   -1.5761 O   0  0  0  0  0  0  0  0  0  0  0  0
    9.8515    0.0534    0.3720 O   0  5  0  0  0  0  0  0  0  0  0  0
    7.1170    0.7980   -0.2319 C   0  0  0  0  0  0  0  0  0  0  0  0
    3.4792    1.3356    0.1527 N   0  0  0  0  0  0  0  0  0  0  0  0
    2.5354    0.4072    0.2273 N   0  0  0  0  0  0  0  0  0  0  0  0
    2.9895   -2.9423    0.1214 H   0  0  0  0  0  0  0  0  0  0  0  0
    1.6204   -2.0938   -0.6179 H   0  0  0  0  0  0  0  0  0  0  0  0
    1.8018   -2.1213    1.1485 H   0  0  0  0  0  0  0  0  0  0  0  0
    5.2969   -1.3524   -0.0941 H   0  0  0  0  0  0  0  0  0  0  0  0
    4.9162    3.3973    0.0686 H   0  0  0  0  0  0  0  0  0  0  0  0
    6.9802    4.6916   -0.1218 H   0  0  0  0  0  0  0  0  0  0  0  0
    9.2046    4.6289   -0.4754 H   0  0  0  0  0  0  0  0  0  0  0  0
    7.1941   -0.2852   -0.2595 H   0  0  0  0  0  0  0  0  0  0  0  0
  1  2  1  0  0  0  0
  1 17  1  0  0  0  0
  1 18  1  0  0  0  0
  1 19  1  0  0  0  0
  2  3  2  0  0  0  0
  2 16  1  0  0  0  0
  3  4  1  0  0  0  0
  3 20  1  0  0  0  0
  4  5  1  0  0  0  0
  4 15  1  0  0  0  0
  5  6  2  0  0  0  0
  5 14  1  0  0  0  0
  6  7  1  0  0  0  0
  6 21  1  0  0  0  0
  7  8  2  0  0  0  0
  7 22  1  0  0  0  0
  8  9  1  0  0  0  0
  8 10  1  0  0  0  0
  9 23  1  0  0  0  0
 10 11  1  0  0  0  0
 10 14  2  0  0  0  0
 11 12  2  0  0  0  0
 11 13  1  0  0  0  0
 14 24  1  0  0  0  0
 15 16  2  0  0  0  0
M  CHG  2  11   1  13  -1
M  END
$$$$
