
 OpenBabel07132314063D

 35 35  0  0  1  0  0  0  0  0999 V2000
    0.0660    2.5522   -3.1522 C   0  0  0  0  0  0  0  0  0  0  0  0
    1.4471    2.4096   -2.6508 C   0  0  0  0  0  0  0  0  0  0  0  0
    2.0715    3.0605   -1.6091 C   0  0  0  0  0  0  0  0  0  0  0  0
    3.3895    2.7452   -1.7778 N   0  0  0  0  0  0  0  0  0  0  0  0
    4.5332    3.5158   -1.3303 C   0  0  0  0  0  0  0  0  0  0  0  0
    5.2537    2.9733   -0.0764 C   0  0  2  0  0  0  0  0  0  0  0  0
    5.4534    1.9105   -0.2696 H   0  0  0  0  0  0  0  0  0  0  0  0
    4.3929    3.0390    1.2014 C   0  0  0  0  0  0  0  0  0  0  0  0
    4.0873    4.4394    1.6902 C   0  0  0  0  0  0  0  0  0  0  0  0
    3.9649    5.4188    0.9723 O   0  0  0  0  0  0  0  0  0  0  0  0
    3.8928    4.5013    3.0205 O   0  0  0  0  0  0  0  0  0  0  0  0
    6.6249    3.6944    0.0754 C   0  0  0  0  0  0  0  0  0  0  0  0
    7.5444    3.1655    1.1968 C   0  0  0  0  0  0  0  0  0  0  0  0
    7.9745    1.7173    0.9574 C   0  0  0  0  0  0  0  0  0  0  0  0
    8.7949    4.0431    1.3254 C   0  0  0  0  0  0  0  0  0  0  0  0
    3.5421    1.7957   -2.7200 N   0  0  0  0  0  0  0  0  0  0  0  0
    2.3562    1.6020   -3.2812 N   0  0  0  0  0  0  0  0  0  0  0  0
   -0.2722    3.5889   -3.0451 H   0  0  0  0  0  0  0  0  0  0  0  0
   -0.6232    1.9044   -2.6055 H   0  0  0  0  0  0  0  0  0  0  0  0
    0.0122    2.3003   -4.2165 H   0  0  0  0  0  0  0  0  0  0  0  0
    1.7276    3.7820   -0.8826 H   0  0  0  0  0  0  0  0  0  0  0  0
    4.1923    4.5463   -1.2033 H   0  0  0  0  0  0  0  0  0  0  0  0
    5.2304    3.5344   -2.1783 H   0  0  0  0  0  0  0  0  0  0  0  0
    4.9135    2.4959    1.9983 H   0  0  0  0  0  0  0  0  0  0  0  0
    3.4358    2.5282    1.0501 H   0  0  0  0  0  0  0  0  0  0  0  0
    3.9881    3.6581    3.4983 H   0  0  0  0  0  0  0  0  0  0  0  0
    6.4486    4.7658    0.2388 H   0  0  0  0  0  0  0  0  0  0  0  0
    7.1675    3.6270   -0.8776 H   0  0  0  0  0  0  0  0  0  0  0  0
    7.0155    3.2197    2.1546 H   0  0  0  0  0  0  0  0  0  0  0  0
    8.5352    1.6216    0.0208 H   0  0  0  0  0  0  0  0  0  0  0  0
    7.1164    1.0418    0.9118 H   0  0  0  0  0  0  0  0  0  0  0  0
    8.6197    1.3681    1.7709 H   0  0  0  0  0  0  0  0  0  0  0  0
    9.4276    3.9739    0.4337 H   0  0  0  0  0  0  0  0  0  0  0  0
    9.3955    3.7297    2.1871 H   0  0  0  0  0  0  0  0  0  0  0  0
    8.5277    5.0944    1.4735 H   0  0  0  0  0  0  0  0  0  0  0  0
  1  2  1  0  0  0  0
  1 18  1  0  0  0  0
  1 19  1  0  0  0  0
  1 20  1  0  0  0  0
  2  3  2  0  0  0  0
  2 17  1  0  0  0  0
  3  4  1  0  0  0  0
  3 21  1  0  0  0  0
  4  5  1  0  0  0  0
  4 16  1  0  0  0  0
  5 22  1  0  0  0  0
  5 23  1  0  0  0  0
  6  8  1  0  0  0  0
  6 12  1  0  0  0  0
  6  7  1  6  0  0  0
  6  5  1  0  0  0  0
  8  9  1  0  0  0  0
  8 24  1  0  0  0  0
  8 25  1  0  0  0  0
  9 10  2  0  0  0  0
  9 11  1  0  0  0  0
 11 26  1  0  0  0  0
 12 13  1  0  0  0  0
 12 27  1  0  0  0  0
 12 28  1  0  0  0  0
 13 14  1  0  0  0  0
 13 15  1  0  0  0  0
 13 29  1  0  0  0  0
 14 30  1  0  0  0  0
 14 31  1  0  0  0  0
 14 32  1  0  0  0  0
 15 33  1  0  0  0  0
 15 34  1  0  0  0  0
 15 35  1  0  0  0  0
 16 17  2  0  0  0  0
M  END
$$$$
