
 OpenBabel07132314063D

 44 46  0  0  0  0  0  0  0  0999 V2000
    0.8729    0.5167   -0.5955 C   0  0  0  0  0  0  0  0  0  0  0  0
    2.3018    0.5836   -0.2260 C   0  0  0  0  0  0  0  0  0  0  0  0
    3.2988    1.4831   -0.5526 C   0  0  0  0  0  0  0  0  0  0  0  0
    4.4501    0.9526    0.0143 N   0  0  0  0  0  0  0  0  0  0  0  0
    5.7896    1.4618   -0.0641 C   0  0  0  0  0  0  0  0  0  0  0  0
    5.7913    2.8203   -0.1503 N   0  0  0  0  0  0  0  0  0  0  0  0
    6.9487    3.4403   -0.0332 C   0  0  0  0  0  0  0  0  0  0  0  0
    6.9300    4.8101    0.0761 N   0  0  0  0  0  0  0  0  0  0  0  0
    8.1186    2.8250   -0.0176 N   0  0  0  0  0  0  0  0  0  0  0  0
    8.1586    1.4641   -0.0350 C   0  0  0  0  0  0  0  0  0  0  0  0
    9.5917    0.9815   -0.0460 C   0  0  0  0  0  0  0  0  0  0  0  0
   10.5897    1.7269    0.6270 C   0  0  0  0  0  0  0  0  0  0  0  0
   11.9455    1.3675    0.6169 C   0  0  0  0  0  0  0  0  0  0  0  0
   12.3531    0.2180   -0.0555 C   0  0  0  0  0  0  0  0  0  0  0  0
   11.4115   -0.5306   -0.7370 C   0  0  0  0  0  0  0  0  0  0  0  0
   10.0625   -0.1381   -0.7560 C   0  0  0  0  0  0  0  0  0  0  0  0
    6.9733    0.6830   -0.0184 C   0  0  0  0  0  0  0  0  0  0  0  0
    7.1166   -0.8407   -0.0666 C   0  0  0  0  0  0  0  0  0  0  0  0
    5.9064   -1.7478    0.0448 C   0  0  0  0  0  0  0  0  0  0  0  0
    6.1360   -3.1442   -0.1749 O   0  0  0  0  0  0  0  0  0  0  0  0
    4.8424   -3.7777   -0.1287 C   0  0  0  0  0  0  0  0  0  0  0  0
    4.9576   -5.2842   -0.1111 C   0  0  0  0  0  0  0  0  0  0  0  0
    4.0801   -0.0350    0.8536 N   0  0  0  0  0  0  0  0  0  0  0  0
    2.8198   -0.3556    0.6146 N   0  0  0  0  0  0  0  0  0  0  0  0
    0.5642    1.3667   -1.2093 H   0  0  0  0  0  0  0  0  0  0  0  0
    0.2545    0.5015    0.3085 H   0  0  0  0  0  0  0  0  0  0  0  0
    0.6666   -0.4038   -1.1533 H   0  0  0  0  0  0  0  0  0  0  0  0
    3.3206    2.3754   -1.1546 H   0  0  0  0  0  0  0  0  0  0  0  0
    6.0758    5.2040   -0.2879 H   0  0  0  0  0  0  0  0  0  0  0  0
    7.8118    5.2119   -0.2048 H   0  0  0  0  0  0  0  0  0  0  0  0
   10.3145    2.6379    1.1608 H   0  0  0  0  0  0  0  0  0  0  0  0
   12.6783    1.9906    1.1248 H   0  0  0  0  0  0  0  0  0  0  0  0
   13.4008   -0.0676   -0.0608 H   0  0  0  0  0  0  0  0  0  0  0  0
   11.7203   -1.4237   -1.2756 H   0  0  0  0  0  0  0  0  0  0  0  0
    9.4113   -0.7357   -1.3811 H   0  0  0  0  0  0  0  0  0  0  0  0
    7.8292   -1.1512    0.7093 H   0  0  0  0  0  0  0  0  0  0  0  0
    7.5478   -1.0975   -1.0368 H   0  0  0  0  0  0  0  0  0  0  0  0
    5.1897   -1.4385   -0.7217 H   0  0  0  0  0  0  0  0  0  0  0  0
    5.5332   -1.6742    1.0674 H   0  0  0  0  0  0  0  0  0  0  0  0
    4.2679   -3.4636   -1.0090 H   0  0  0  0  0  0  0  0  0  0  0  0
    4.3013   -3.4578    0.7703 H   0  0  0  0  0  0  0  0  0  0  0  0
    5.5050   -5.6467   -0.9850 H   0  0  0  0  0  0  0  0  0  0  0  0
    3.9561   -5.7286   -0.1062 H   0  0  0  0  0  0  0  0  0  0  0  0
    5.4911   -5.6188    0.7825 H   0  0  0  0  0  0  0  0  0  0  0  0
  1  2  1  0  0  0  0
  1 25  1  0  0  0  0
  1 26  1  0  0  0  0
  1 27  1  0  0  0  0
  2  3  2  0  0  0  0
  2 24  1  0  0  0  0
  3  4  1  0  0  0  0
  3 28  1  0  0  0  0
  4  5  1  0  0  0  0
  4 23  1  0  0  0  0
  5  6  2  0  0  0  0
  5 17  1  0  0  0  0
  6  7  1  0  0  0  0
  7  8  1  0  0  0  0
  7  9  2  0  0  0  0
  8 29  1  0  0  0  0
  8 30  1  0  0  0  0
  9 10  1  0  0  0  0
 10 11  1  0  0  0  0
 10 17  2  0  0  0  0
 11 12  2  0  0  0  0
 11 16  1  0  0  0  0
 12 13  1  0  0  0  0
 12 31  1  0  0  0  0
 13 14  2  0  0  0  0
 13 32  1  0  0  0  0
 14 15  1  0  0  0  0
 14 33  1  0  0  0  0
 15 16  2  0  0  0  0
 15 34  1  0  0  0  0
 16 35  1  0  0  0  0
 17 18  1  0  0  0  0
 18 19  1  0  0  0  0
 18 36  1  0  0  0  0
 18 37  1  0  0  0  0
 19 20  1  0  0  0  0
 19 38  1  0  0  0  0
 19 39  1  0  0  0  0
 20 21  1  0  0  0  0
 21 22  1  0  0  0  0
 21 40  1  0  0  0  0
 21 41  1  0  0  0  0
 22 42  1  0  0  0  0
 22 43  1  0  0  0  0
 22 44  1  0  0  0  0
 23 24  2  0  0  0  0
M  END
$$$$
