
 OpenBabel07132314063D

 36 38  0  0  0  0  0  0  0  0999 V2000
    0.9039   -0.2839    0.4290 C   0  0  0  0  0  0  0  0  0  0  0  0
    2.3343   -0.0610    0.1514 C   0  0  0  0  0  0  0  0  0  0  0  0
    3.1382    1.0180    0.4423 C   0  0  0  0  0  0  0  0  0  0  0  0
    4.3457    0.7087   -0.1199 N   0  0  0  0  0  0  0  0  0  0  0  0
    5.6507    1.4317   -0.0907 C   0  0  0  0  0  0  0  0  0  0  0  0
    6.3251    0.9828    1.2197 C   0  0  0  0  0  0  0  0  0  0  0  0
    6.4058    1.0273   -1.3799 C   0  0  0  0  0  0  0  0  0  0  0  0
    5.5035    2.9672   -0.1072 C   0  0  0  0  0  0  0  0  0  0  0  0
    4.3847    3.4852   -0.1800 O   0  0  0  0  0  0  0  0  0  0  0  0
    6.6765    3.8881   -0.0601 C   0  0  0  0  0  0  0  0  0  0  0  0
    6.4754    5.2643   -0.0567 C   0  0  0  0  0  0  0  0  0  0  0  0
    7.6770    5.9037   -0.0391 N   0  0  0  0  0  0  0  0  0  0  0  0
    8.6964    4.9868   -0.0270 C   0  0  0  0  0  0  0  0  0  0  0  0
   10.0811    5.2115   -0.0175 C   0  0  0  0  0  0  0  0  0  0  0  0
   10.9287    4.1051   -0.0121 C   0  0  0  0  0  0  0  0  0  0  0  0
   10.4077    2.8212   -0.0123 C   0  0  0  0  0  0  0  0  0  0  0  0
    9.0225    2.6175   -0.0200 C   0  0  0  0  0  0  0  0  0  0  0  0
    8.1178    3.7100   -0.0310 C   0  0  0  0  0  0  0  0  0  0  0  0
    4.3127   -0.5581   -0.6036 N   0  0  0  0  0  0  0  0  0  0  0  0
    3.0766   -1.0139   -0.4829 N   0  0  0  0  0  0  0  0  0  0  0  0
    0.4611    0.5713    0.9466 H   0  0  0  0  0  0  0  0  0  0  0  0
    0.7697   -1.1723    1.0540 H   0  0  0  0  0  0  0  0  0  0  0  0
    0.3575   -0.4368   -0.5076 H   0  0  0  0  0  0  0  0  0  0  0  0
    2.9383    1.9494    0.9515 H   0  0  0  0  0  0  0  0  0  0  0  0
    6.6741   -0.0529    1.1562 H   0  0  0  0  0  0  0  0  0  0  0  0
    5.6223    1.0383    2.0607 H   0  0  0  0  0  0  0  0  0  0  0  0
    7.1691    1.6029    1.5228 H   0  0  0  0  0  0  0  0  0  0  0  0
    6.8026    0.0080   -1.3142 H   0  0  0  0  0  0  0  0  0  0  0  0
    7.2324    1.6841   -1.6454 H   0  0  0  0  0  0  0  0  0  0  0  0
    5.7342    1.0676   -2.2484 H   0  0  0  0  0  0  0  0  0  0  0  0
    5.5539    5.8345   -0.0765 H   0  0  0  0  0  0  0  0  0  0  0  0
    7.8061    6.9068   -0.0437 H   0  0  0  0  0  0  0  0  0  0  0  0
   10.4899    6.2175   -0.0195 H   0  0  0  0  0  0  0  0  0  0  0  0
   12.0063    4.2498   -0.0095 H   0  0  0  0  0  0  0  0  0  0  0  0
   11.0758    1.9629   -0.0107 H   0  0  0  0  0  0  0  0  0  0  0  0
    8.6849    1.5866   -0.0254 H   0  0  0  0  0  0  0  0  0  0  0  0
  1  2  1  0  0  0  0
  1 21  1  0  0  0  0
  1 22  1  0  0  0  0
  1 23  1  0  0  0  0
  2  3  2  0  0  0  0
  2 20  1  0  0  0  0
  3  4  1  0  0  0  0
  3 24  1  0  0  0  0
  4  5  1  0  0  0  0
  4 19  1  0  0  0  0
  5  6  1  0  0  0  0
  5  7  1  0  0  0  0
  5  8  1  0  0  0  0
  6 25  1  0  0  0  0
  6 26  1  0  0  0  0
  6 27  1  0  0  0  0
  7 28  1  0  0  0  0
  7 29  1  0  0  0  0
  7 30  1  0  0  0  0
  8  9  2  0  0  0  0
  8 10  1  0  0  0  0
 10 11  2  0  0  0  0
 10 18  1  0  0  0  0
 11 12  1  0  0  0  0
 11 31  1  0  0  0  0
 12 13  1  0  0  0  0
 12 32  1  0  0  0  0
 13 14  2  0  0  0  0
 13 18  1  0  0  0  0
 14 15  1  0  0  0  0
 14 33  1  0  0  0  0
 15 16  2  0  0  0  0
 15 34  1  0  0  0  0
 16 17  1  0  0  0  0
 16 35  1  0  0  0  0
 17 18  2  0  0  0  0
 17 36  1  0  0  0  0
 19 20  2  0  0  0  0
M  END
$$$$
